** biofilm_conformal_tet.py – Conformal C3D4 biofilm mesh
** STL   : P1_Tooth_23.stl
** DI CSV: abaqus_field_dh_3d.csv
** Thickness: 0.500 mm  Layers: 8  Total nodes: 16173  Total tets: 86160
** Inner face: tooth STL surface (zero penetration by construction)
**
*Heading
 Conformal biofilm tet mesh - P1_Tooth_23.stl
**
*Node
 1, -69.657928, -45.383583, 26.145887
 2, -69.328705, -45.38681, 25.758587
 3, -69.192703, -45.380817, 26.258251
 4, -67.29612, -39.252289, 29.980015
 5, -67.375061, -39.030472, 29.644772
 6, -67.369034, -38.736446, 29.99329
 7, -66.972237, -37.030758, 34.823738
 8, -66.74762, -37.201523, 34.431892
 9, -67.185341, -36.974525, 34.400417
 10, -67.992691, -36.868366, 32.623665
 11, -67.815163, -36.881153, 33.084137
 12, -67.538597, -37.010468, 32.706177
 13, -71.247223, -41.121857, 27.702221
 14, -71.248375, -41.536453, 27.929348
 15, -71.251076, -41.12949, 28.173306
 16, -68.093056, -43.156647, 31.828054
 17, -67.992081, -42.965641, 32.236023
 18, -68.266808, -43.245583, 32.170998
 19, -68.161812, -41.294853, 23.093561
 20, -68.243721, -41.234756, 22.733173
** ... 16153 like lines cut
**
*Element, type=C3D4
 1, 1, 2, 3, 1800
 2, 1, 2, 1800, 1799
 3, 1, 1799, 1800, 1798
 4, 4, 5, 6, 1803
 5, 4, 5, 1803, 1802
 6, 4, 1802, 1803, 1801
 7, 7, 8, 9, 1806
 8, 7, 8, 1806, 1805
 9, 7, 1805, 1806, 1804
 10, 10, 11, 12, 1809
 11, 10, 11, 1809, 1808
 12, 10, 1808, 1809, 1807
 13, 13, 14, 15, 1812
 14, 13, 14, 1812, 1811
 15, 13, 1811, 1812, 1810
 16, 16, 17, 18, 1815
 17, 16, 17, 1815, 1814
 18, 16, 1814, 1815, 1813
 19, 19, 20, 21, 1818
 20, 19, 20, 1818, 1817
** ... 86140 like lines cut
**
*Nset, nset=INNER_FACE
1, 2, 3, 4, 5, 6, 7, 8, 9, 10, 11, 12, 13, 14, 15, 16,
17, 18, 19, 20, 21, 22, 23, 24, 25, 26, 27, 28, 29, 30, 31, 32,
33, 34, 35, 36, 37, 38, 39, 40, 41, 42, 43, 44, 45, 46, 47, 48,
49, 50, 51, 52, 53, 54, 55, 56, 57, 58, 59, 60, 61, 62, 63, 64,
65, 66, 67, 68, 69, 70, 71, 72, 73, 74, 75, 76, 77, 78, 79, 80,
81, 82, 83, 84, 85, 86, 87, 88, 89, 90, 91, 92, 93, 94, 95, 96,
97, 98, 99, 100, 101, 102, 103, 104, 105, 106, 107, 108, 109, 110, 111, 112,
113, 114, 115, 116, 117, 118, 119, 120, 121, 122, 123, 124, 125, 126, 127, 128,
129, 130, 131, 132, 133, 134, 135, 136, 137, 138, 139, 140, 141, 142, 143, 144,
145, 146, 147, 148, 149, 150, 151, 152, 153, 154, 155, 156, 157, 158, 159, 160,
161, 162, 163, 164, 165, 166, 167, 168, 169, 170, 171, 172, 173, 174, 175, 176,
177, 178, 179, 180, 181, 182, 183, 184, 185, 186, 187, 188, 189, 190, 191, 192,
193, 194, 195, 196, 197, 198, 199, 200, 201, 202, 203, 204, 205, 206, 207, 208,
209, 210, 211, 212, 213, 214, 215, 216, 217, 218, 219, 220, 221, 222, 223, 224,
225, 226, 227, 228, 229, 230, 231, 232, 233, 234, 235, 236, 237, 238, 239, 240,
241, 242, 243, 244, 245, 246, 247, 248, 249, 250, 251, 252, 253, 254, 255, 256,
257, 258, 259, 260, 261, 262, 263, 264, 265, 266, 267, 268, 269, 270, 271, 272,
273, 274, 275, 276, 277, 278, 279, 280, 281, 282, 283, 284, 285, 286, 287, 288,
289, 290, 291, 292, 293, 294, 295, 296, 297, 298, 299, 300, 301, 302, 303, 304,
305, 306, 307, 308, 309, 310, 311, 312, 313, 314, 315, 316, 317, 318, 319, 320,
** ... 93 like lines cut
**
*Nset, nset=OUTER_FACE
14377, 14378, 14379, 14380, 14381, 14382, 14383, 14384, 14385, 14386, 14387, 14388, 14389, 14390, 14391, 14392,
14393, 14394, 14395, 14396, 14397, 14398, 14399, 14400, 14401, 14402, 14403, 14404, 14405, 14406, 14407, 14408,
14409, 14410, 14411, 14412, 14413, 14414, 14415, 14416, 14417, 14418, 14419, 14420, 14421, 14422, 14423, 14424,
14425, 14426, 14427, 14428, 14429, 14430, 14431, 14432, 14433, 14434, 14435, 14436, 14437, 14438, 14439, 14440,
14441, 14442, 14443, 14444, 14445, 14446, 14447, 14448, 14449, 14450, 14451, 14452, 14453, 14454, 14455, 14456,
14457, 14458, 14459, 14460, 14461, 14462, 14463, 14464, 14465, 14466, 14467, 14468, 14469, 14470, 14471, 14472,
14473, 14474, 14475, 14476, 14477, 14478, 14479, 14480, 14481, 14482, 14483, 14484, 14485, 14486, 14487, 14488,
14489, 14490, 14491, 14492, 14493, 14494, 14495, 14496, 14497, 14498, 14499, 14500, 14501, 14502, 14503, 14504,
14505, 14506, 14507, 14508, 14509, 14510, 14511, 14512, 14513, 14514, 14515, 14516, 14517, 14518, 14519, 14520,
14521, 14522, 14523, 14524, 14525, 14526, 14527, 14528, 14529, 14530, 14531, 14532, 14533, 14534, 14535, 14536,
14537, 14538, 14539, 14540, 14541, 14542, 14543, 14544, 14545, 14546, 14547, 14548, 14549, 14550, 14551, 14552,
14553, 14554, 14555, 14556, 14557, 14558, 14559, 14560, 14561, 14562, 14563, 14564, 14565, 14566, 14567, 14568,
14569, 14570, 14571, 14572, 14573, 14574, 14575, 14576, 14577, 14578, 14579, 14580, 14581, 14582, 14583, 14584,
14585, 14586, 14587, 14588, 14589, 14590, 14591, 14592, 14593, 14594, 14595, 14596, 14597, 14598, 14599, 14600,
14601, 14602, 14603, 14604, 14605, 14606, 14607, 14608, 14609, 14610, 14611, 14612, 14613, 14614, 14615, 14616,
14617, 14618, 14619, 14620, 14621, 14622, 14623, 14624, 14625, 14626, 14627, 14628, 14629, 14630, 14631, 14632,
14633, 14634, 14635, 14636, 14637, 14638, 14639, 14640, 14641, 14642, 14643, 14644, 14645, 14646, 14647, 14648,
14649, 14650, 14651, 14652, 14653, 14654, 14655, 14656, 14657, 14658, 14659, 14660, 14661, 14662, 14663, 14664,
14665, 14666, 14667, 14668, 14669, 14670, 14671, 14672, 14673, 14674, 14675, 14676, 14677, 14678, 14679, 14680,
14681, 14682, 14683, 14684, 14685, 14686, 14687, 14688, 14689, 14690, 14691, 14692, 14693, 14694, 14695, 14696,
** ... 93 like lines cut
**
*Nset, nset=BOT_NODES
114, 115, 116, 160, 306, 307, 452, 1248, 1360, 1361, 1496, 1513, 1611, 1628, 1645, 1683,
1684, 1911, 1912, 1913, 1957, 2103, 2104, 2249, 3045, 3157, 3158, 3293, 3310, 3408, 3425, 3442,
3480, 3481, 3708, 3709, 3710, 3754, 3900, 3901, 4046, 4842, 4856, 4954, 4955, 5090, 5107, 5168,
5194, 5205, 5222, 5239, 5277, 5278, 5306, 5391, 5505, 5506, 5507, 5551, 5697, 5698, 5843, 5933,
6639, 6653, 6751, 6752, 6887, 6904, 6965, 6991, 7002, 7019, 7036, 7074, 7075, 7103, 7188, 7302,
7303, 7304, 7348, 7494, 7495, 7640, 7730, 8316, 8435, 8436, 8450, 8548, 8549, 8684, 8701, 8762,
8788, 8799, 8816, 8833, 8871, 8872, 8900, 8985, 9099, 9100, 9101, 9145, 9291, 9292, 9437, 9527,
10113, 10232, 10233, 10247, 10345, 10346, 10481, 10498, 10559, 10585, 10587, 10596, 10613, 10630, 10668, 10669,
10697, 10782, 10896, 10897, 10898, 10942, 11088, 11089, 11234, 11324, 11910, 12029, 12030, 12044, 12142, 12143,
12278, 12295, 12356, 12382, 12384, 12393, 12410, 12427, 12465, 12466, 12494, 12579, 12693, 12694, 12695, 12739,
12885, 12886, 13031, 13121, 13225, 13707, 13825, 13826, 13827, 13841, 13939, 13940, 14075, 14092, 14097, 14153,
14179, 14181, 14190, 14207, 14224, 14262, 14263, 14291, 14376, 14490, 14491, 14492, 14536, 14682, 14683, 14828,
14829, 14918, 15022, 15504, 15565, 15622, 15623, 15624, 15638, 15736, 15737, 15872, 15889, 15894, 15950, 15976,
15978, 15987, 16004, 16021, 16059, 16060, 16088, 16173
**
*Nset, nset=TOP_NODES
111, 112, 113, 149, 150, 151, 157, 158, 159, 191, 288, 289, 290, 321, 322, 388,
393, 394, 395, 471, 484, 485, 631, 632, 635, 636, 637, 660, 675, 729, 730, 910,
911, 942, 959, 962, 963, 995, 1013, 1110, 1165, 1235, 1367, 1475, 1476, 1491, 1538, 1591,
1619, 1627, 1630, 1661, 1730, 1745, 1908, 1909, 1910, 1946, 1947, 1948, 1954, 1955, 1956, 1988,
2085, 2086, 2087, 2118, 2119, 2185, 2190, 2191, 2192, 2268, 2281, 2282, 2428, 2429, 2432, 2433,
2434, 2457, 2472, 2526, 2527, 2528, 2707, 2708, 2739, 2756, 2759, 2760, 2792, 2810, 2907, 2908,
2930, 2962, 3032, 3164, 3272, 3273, 3288, 3335, 3388, 3416, 3424, 3427, 3458, 3527, 3542, 3677,
3705, 3706, 3707, 3743, 3744, 3745, 3751, 3752, 3753, 3785, 3882, 3883, 3884, 3914, 3915, 3916,
3982, 3987, 3988, 3989, 4065, 4077, 4078, 4079, 4183, 4225, 4226, 4229, 4230, 4231, 4254, 4269,
4323, 4324, 4325, 4504, 4505, 4536, 4553, 4556, 4557, 4589, 4607, 4704, 4705, 4727, 4759, 4829,
4961, 5069, 5070, 5085, 5132, 5185, 5213, 5221, 5224, 5255, 5324, 5339, 5474, 5502, 5503, 5504,
5540, 5541, 5542, 5548, 5549, 5550, 5582, 5679, 5680, 5681, 5711, 5712, 5713, 5779, 5784, 5785,
5786, 5862, 5874, 5875, 5876, 5980, 6022, 6023, 6026, 6027, 6028, 6039, 6051, 6066, 6120, 6121,
6122, 6301, 6302, 6317, 6333, 6350, 6353, 6354, 6386, 6403, 6404, 6426, 6501, 6502, 6524, 6556,
6626, 6758, 6866, 6867, 6882, 6911, 6929, 6982, 7010, 7018, 7021, 7052, 7121, 7136, 7271, 7299,
7300, 7301, 7337, 7338, 7339, 7345, 7346, 7347, 7379, 7476, 7477, 7478, 7508, 7509, 7510, 7576,
7581, 7582, 7583, 7659, 7671, 7672, 7673, 7777, 7819, 7820, 7823, 7824, 7825, 7836, 7848, 7863,
7917, 7918, 7919, 8098, 8099, 8114, 8130, 8147, 8150, 8151, 8183, 8200, 8201, 8223, 8298, 8299,
8321, 8353, 8423, 8424, 8555, 8663, 8664, 8679, 8708, 8726, 8779, 8807, 8815, 8818, 8849, 8880,
8918, 8933, 9068, 9096, 9097, 9098, 9134, 9135, 9136, 9142, 9143, 9144, 9176, 9273, 9274, 9275,
** ... 18 like lines cut
**
*Nset, nset=ALL_NODES, generate
 1, 16173, 1
**
*Elset, elset=BIN_03
64621, 64622, 64623, 64624, 64625, 64626, 64627, 64628, 64629, 64630, 64631, 64632, 64633, 64634, 64635, 64636,
64637, 64638, 64639, 64640, 64641, 64642, 64643, 64644, 64645, 64646, 64647, 64648, 64649, 64650, 64651, 64652,
64653, 64654, 64655, 64656, 64657, 64658, 64659, 64660, 64661, 64662, 64663, 64664, 64665, 64666, 64667, 64668,
64669, 64670, 64671, 64672, 64673, 64674, 64675, 64676, 64677, 64678, 64679, 64680, 64681, 64682, 64683, 64684,
64685, 64686, 64687, 64688, 64689, 64690, 64691, 64692, 64693, 64694, 64695, 64696, 64697, 64698, 64699, 64700,
64701, 64702, 64703, 64704, 64705, 64706, 64707, 64708, 64709, 64710, 64711, 64712, 64713, 64714, 64715, 64716,
64717, 64718, 64719, 64720, 64721, 64722, 64723, 64724, 64725, 64726, 64727, 64728, 64729, 64730, 64731, 64732,
64733, 64734, 64735, 64736, 64737, 64738, 64739, 64740, 64741, 64742, 64743, 64744, 64745, 64746, 64747, 64748,
64749, 64750, 64751, 64752, 64753, 64754, 64755, 64756, 64757, 64758, 64759, 64760, 64761, 64762, 64763, 64764,
64765, 64766, 64767, 64768, 64769, 64770, 64771, 64772, 64773, 64774, 64775, 64776, 64777, 64778, 64779, 64780,
64781, 64782, 64783, 64784, 64785, 64786, 64787, 64788, 64789, 64790, 64791, 64792, 64793, 64794, 64795, 64796,
64797, 64798, 64799, 64800, 64801, 64802, 64803, 64804, 64805, 64806, 64807, 64808, 64809, 64810, 64811, 64812,
64813, 64814, 64815, 64816, 64817, 64818, 64819, 64820, 64821, 64822, 64823, 64824, 64825, 64826, 64827, 64828,
64829, 64830, 64831, 64832, 64833, 64834, 64835, 64836, 64837, 64838, 64839, 64840, 64841, 64842, 64843, 64844,
64845, 64846, 64847, 64848, 64849, 64850, 64851, 64852, 64853, 64854, 64855, 64856, 64857, 64858, 64859, 64860,
64861, 64862, 64863, 64864, 64865, 64866, 64867, 64868, 64869, 64870, 64871, 64872, 64873, 64874, 64875, 64876,
64877, 64878, 64879, 64880, 64881, 64882, 64883, 64884, 64885, 64886, 64887, 64888, 64889, 64890, 64891, 64892,
64893, 64894, 64895, 64896, 64897, 64898, 64899, 64900, 64901, 64902, 64903, 64904, 64905, 64906, 64907, 64908,
64909, 64910, 64911, 64912, 64913, 64914, 64915, 64916, 64917, 64918, 64919, 64920, 64921, 64922, 64923, 64924,
64925, 64926, 64927, 64928, 64929, 64930, 64931, 64932, 64933, 64934, 64935, 64936, 64937, 64938, 64939, 64940,
** ... 654 like lines cut
**
*Elset, elset=BIN_04
10771, 10772, 10773, 10774, 10775, 10776, 10777, 10778, 10779, 10780, 10781, 10782, 10783, 10784, 10785, 10786,
10787, 10788, 10789, 10790, 10791, 10792, 10793, 10794, 10795, 10796, 10797, 10798, 10799, 10800, 10801, 10802,
10803, 10804, 10805, 10806, 10807, 10808, 10809, 10810, 10811, 10812, 10813, 10814, 10815, 10816, 10817, 10818,
10819, 10820, 10821, 10822, 10823, 10824, 10825, 10826, 10827, 10828, 10829, 10830, 10831, 10832, 10833, 10834,
10835, 10836, 10837, 10838, 10839, 10840, 10841, 10842, 10843, 10844, 10845, 10846, 10847, 10848, 10849, 10850,
10851, 10852, 10853, 10854, 10855, 10856, 10857, 10858, 10859, 10860, 10861, 10862, 10863, 10864, 10865, 10866,
10867, 10868, 10869, 10870, 10871, 10872, 10873, 10874, 10875, 10876, 10877, 10878, 10879, 10880, 10881, 10882,
10883, 10884, 10885, 10886, 10887, 10888, 10889, 10890, 10891, 10892, 10893, 10894, 10895, 10896, 10897, 10898,
10899, 10900, 10901, 10902, 10903, 10904, 10905, 10906, 10907, 10908, 10909, 10910, 10911, 10912, 10913, 10914,
10915, 10916, 10917, 10918, 10919, 10920, 10921, 10922, 10923, 10924, 10925, 10926, 10927, 10928, 10929, 10930,
10931, 10932, 10933, 10934, 10935, 10936, 10937, 10938, 10939, 10940, 10941, 10942, 10943, 10944, 10945, 10946,
10947, 10948, 10949, 10950, 10951, 10952, 10953, 10954, 10955, 10956, 10957, 10958, 10959, 10960, 10961, 10962,
10963, 10964, 10965, 10966, 10967, 10968, 10969, 10970, 10971, 10972, 10973, 10974, 10975, 10976, 10977, 10978,
10979, 10980, 10981, 10982, 10983, 10984, 10985, 10986, 10987, 10988, 10989, 10990, 10991, 10992, 10993, 10994,
10995, 10996, 10997, 10998, 10999, 11000, 11001, 11002, 11003, 11004, 11005, 11006, 11007, 11008, 11009, 11010,
11011, 11012, 11013, 11014, 11015, 11016, 11017, 11018, 11019, 11020, 11021, 11022, 11023, 11024, 11025, 11026,
11027, 11028, 11029, 11030, 11031, 11032, 11033, 11034, 11035, 11036, 11037, 11038, 11039, 11040, 11041, 11042,
11043, 11044, 11045, 11046, 11047, 11048, 11049, 11050, 11051, 11052, 11053, 11054, 11055, 11056, 11057, 11058,
11059, 11060, 11061, 11062, 11063, 11064, 11065, 11066, 11067, 11068, 11069, 11070, 11071, 11072, 11073, 11074,
11075, 11076, 11077, 11078, 11079, 11080, 11081, 11082, 11083, 11084, 11085, 11086, 11087, 11088, 11089, 11090,
** ... 654 like lines cut
**
*Elset, elset=BIN_06
32311, 32312, 32313, 32314, 32315, 32316, 32317, 32318, 32319, 32320, 32321, 32322, 32323, 32324, 32325, 32326,
32327, 32328, 32329, 32330, 32331, 32332, 32333, 32334, 32335, 32336, 32337, 32338, 32339, 32340, 32341, 32342,
32343, 32344, 32345, 32346, 32347, 32348, 32349, 32350, 32351, 32352, 32353, 32354, 32355, 32356, 32357, 32358,
32359, 32360, 32361, 32362, 32363, 32364, 32365, 32366, 32367, 32368, 32369, 32370, 32371, 32372, 32373, 32374,
32375, 32376, 32377, 32378, 32379, 32380, 32381, 32382, 32383, 32384, 32385, 32386, 32387, 32388, 32389, 32390,
32391, 32392, 32393, 32394, 32395, 32396, 32397, 32398, 32399, 32400, 32401, 32402, 32403, 32404, 32405, 32406,
32407, 32408, 32409, 32410, 32411, 32412, 32413, 32414, 32415, 32416, 32417, 32418, 32419, 32420, 32421, 32422,
32423, 32424, 32425, 32426, 32427, 32428, 32429, 32430, 32431, 32432, 32433, 32434, 32435, 32436, 32437, 32438,
32439, 32440, 32441, 32442, 32443, 32444, 32445, 32446, 32447, 32448, 32449, 32450, 32451, 32452, 32453, 32454,
32455, 32456, 32457, 32458, 32459, 32460, 32461, 32462, 32463, 32464, 32465, 32466, 32467, 32468, 32469, 32470,
32471, 32472, 32473, 32474, 32475, 32476, 32477, 32478, 32479, 32480, 32481, 32482, 32483, 32484, 32485, 32486,
32487, 32488, 32489, 32490, 32491, 32492, 32493, 32494, 32495, 32496, 32497, 32498, 32499, 32500, 32501, 32502,
32503, 32504, 32505, 32506, 32507, 32508, 32509, 32510, 32511, 32512, 32513, 32514, 32515, 32516, 32517, 32518,
32519, 32520, 32521, 32522, 32523, 32524, 32525, 32526, 32527, 32528, 32529, 32530, 32531, 32532, 32533, 32534,
32535, 32536, 32537, 32538, 32539, 32540, 32541, 32542, 32543, 32544, 32545, 32546, 32547, 32548, 32549, 32550,
32551, 32552, 32553, 32554, 32555, 32556, 32557, 32558, 32559, 32560, 32561, 32562, 32563, 32564, 32565, 32566,
32567, 32568, 32569, 32570, 32571, 32572, 32573, 32574, 32575, 32576, 32577, 32578, 32579, 32580, 32581, 32582,
32583, 32584, 32585, 32586, 32587, 32588, 32589, 32590, 32591, 32592, 32593, 32594, 32595, 32596, 32597, 32598,
32599, 32600, 32601, 32602, 32603, 32604, 32605, 32606, 32607, 32608, 32609, 32610, 32611, 32612, 32613, 32614,
32615, 32616, 32617, 32618, 32619, 32620, 32621, 32622, 32623, 32624, 32625, 32626, 32627, 32628, 32629, 32630,
** ... 654 like lines cut
**
*Elset, elset=BIN_07
43081, 43082, 43083, 43084, 43085, 43086, 43087, 43088, 43089, 43090, 43091, 43092, 43093, 43094, 43095, 43096,
43097, 43098, 43099, 43100, 43101, 43102, 43103, 43104, 43105, 43106, 43107, 43108, 43109, 43110, 43111, 43112,
43113, 43114, 43115, 43116, 43117, 43118, 43119, 43120, 43121, 43122, 43123, 43124, 43125, 43126, 43127, 43128,
43129, 43130, 43131, 43132, 43133, 43134, 43135, 43136, 43137, 43138, 43139, 43140, 43141, 43142, 43143, 43144,
43145, 43146, 43147, 43148, 43149, 43150, 43151, 43152, 43153, 43154, 43155, 43156, 43157, 43158, 43159, 43160,
43161, 43162, 43163, 43164, 43165, 43166, 43167, 43168, 43169, 43170, 43171, 43172, 43173, 43174, 43175, 43176,
43177, 43178, 43179, 43180, 43181, 43182, 43183, 43184, 43185, 43186, 43187, 43188, 43189, 43190, 43191, 43192,
43193, 43194, 43195, 43196, 43197, 43198, 43199, 43200, 43201, 43202, 43203, 43204, 43205, 43206, 43207, 43208,
43209, 43210, 43211, 43212, 43213, 43214, 43215, 43216, 43217, 43218, 43219, 43220, 43221, 43222, 43223, 43224,
43225, 43226, 43227, 43228, 43229, 43230, 43231, 43232, 43233, 43234, 43235, 43236, 43237, 43238, 43239, 43240,
43241, 43242, 43243, 43244, 43245, 43246, 43247, 43248, 43249, 43250, 43251, 43252, 43253, 43254, 43255, 43256,
43257, 43258, 43259, 43260, 43261, 43262, 43263, 43264, 43265, 43266, 43267, 43268, 43269, 43270, 43271, 43272,
43273, 43274, 43275, 43276, 43277, 43278, 43279, 43280, 43281, 43282, 43283, 43284, 43285, 43286, 43287, 43288,
43289, 43290, 43291, 43292, 43293, 43294, 43295, 43296, 43297, 43298, 43299, 43300, 43301, 43302, 43303, 43304,
43305, 43306, 43307, 43308, 43309, 43310, 43311, 43312, 43313, 43314, 43315, 43316, 43317, 43318, 43319, 43320,
43321, 43322, 43323, 43324, 43325, 43326, 43327, 43328, 43329, 43330, 43331, 43332, 43333, 43334, 43335, 43336,
43337, 43338, 43339, 43340, 43341, 43342, 43343, 43344, 43345, 43346, 43347, 43348, 43349, 43350, 43351, 43352,
43353, 43354, 43355, 43356, 43357, 43358, 43359, 43360, 43361, 43362, 43363, 43364, 43365, 43366, 43367, 43368,
43369, 43370, 43371, 43372, 43373, 43374, 43375, 43376, 43377, 43378, 43379, 43380, 43381, 43382, 43383, 43384,
43385, 43386, 43387, 43388, 43389, 43390, 43391, 43392, 43393, 43394, 43395, 43396, 43397, 43398, 43399, 43400,
** ... 1327 like lines cut
**
*Elset, elset=BIN_08
21541, 21542, 21543, 21544, 21545, 21546, 21547, 21548, 21549, 21550, 21551, 21552, 21553, 21554, 21555, 21556,
21557, 21558, 21559, 21560, 21561, 21562, 21563, 21564, 21565, 21566, 21567, 21568, 21569, 21570, 21571, 21572,
21573, 21574, 21575, 21576, 21577, 21578, 21579, 21580, 21581, 21582, 21583, 21584, 21585, 21586, 21587, 21588,
21589, 21590, 21591, 21592, 21593, 21594, 21595, 21596, 21597, 21598, 21599, 21600, 21601, 21602, 21603, 21604,
21605, 21606, 21607, 21608, 21609, 21610, 21611, 21612, 21613, 21614, 21615, 21616, 21617, 21618, 21619, 21620,
21621, 21622, 21623, 21624, 21625, 21626, 21627, 21628, 21629, 21630, 21631, 21632, 21633, 21634, 21635, 21636,
21637, 21638, 21639, 21640, 21641, 21642, 21643, 21644, 21645, 21646, 21647, 21648, 21649, 21650, 21651, 21652,
21653, 21654, 21655, 21656, 21657, 21658, 21659, 21660, 21661, 21662, 21663, 21664, 21665, 21666, 21667, 21668,
21669, 21670, 21671, 21672, 21673, 21674, 21675, 21676, 21677, 21678, 21679, 21680, 21681, 21682, 21683, 21684,
21685, 21686, 21687, 21688, 21689, 21690, 21691, 21692, 21693, 21694, 21695, 21696, 21697, 21698, 21699, 21700,
21701, 21702, 21703, 21704, 21705, 21706, 21707, 21708, 21709, 21710, 21711, 21712, 21713, 21714, 21715, 21716,
21717, 21718, 21719, 21720, 21721, 21722, 21723, 21724, 21725, 21726, 21727, 21728, 21729, 21730, 21731, 21732,
21733, 21734, 21735, 21736, 21737, 21738, 21739, 21740, 21741, 21742, 21743, 21744, 21745, 21746, 21747, 21748,
21749, 21750, 21751, 21752, 21753, 21754, 21755, 21756, 21757, 21758, 21759, 21760, 21761, 21762, 21763, 21764,
21765, 21766, 21767, 21768, 21769, 21770, 21771, 21772, 21773, 21774, 21775, 21776, 21777, 21778, 21779, 21780,
21781, 21782, 21783, 21784, 21785, 21786, 21787, 21788, 21789, 21790, 21791, 21792, 21793, 21794, 21795, 21796,
21797, 21798, 21799, 21800, 21801, 21802, 21803, 21804, 21805, 21806, 21807, 21808, 21809, 21810, 21811, 21812,
21813, 21814, 21815, 21816, 21817, 21818, 21819, 21820, 21821, 21822, 21823, 21824, 21825, 21826, 21827, 21828,
21829, 21830, 21831, 21832, 21833, 21834, 21835, 21836, 21837, 21838, 21839, 21840, 21841, 21842, 21843, 21844,
21845, 21846, 21847, 21848, 21849, 21850, 21851, 21852, 21853, 21854, 21855, 21856, 21857, 21858, 21859, 21860,
** ... 654 like lines cut
**
*Elset, elset=BIN_10
75391, 75392, 75393, 75394, 75395, 75396, 75397, 75398, 75399, 75400, 75401, 75402, 75403, 75404, 75405, 75406,
75407, 75408, 75409, 75410, 75411, 75412, 75413, 75414, 75415, 75416, 75417, 75418, 75419, 75420, 75421, 75422,
75423, 75424, 75425, 75426, 75427, 75428, 75429, 75430, 75431, 75432, 75433, 75434, 75435, 75436, 75437, 75438,
75439, 75440, 75441, 75442, 75443, 75444, 75445, 75446, 75447, 75448, 75449, 75450, 75451, 75452, 75453, 75454,
75455, 75456, 75457, 75458, 75459, 75460, 75461, 75462, 75463, 75464, 75465, 75466, 75467, 75468, 75469, 75470,
75471, 75472, 75473, 75474, 75475, 75476, 75477, 75478, 75479, 75480, 75481, 75482, 75483, 75484, 75485, 75486,
75487, 75488, 75489, 75490, 75491, 75492, 75493, 75494, 75495, 75496, 75497, 75498, 75499, 75500, 75501, 75502,
75503, 75504, 75505, 75506, 75507, 75508, 75509, 75510, 75511, 75512, 75513, 75514, 75515, 75516, 75517, 75518,
75519, 75520, 75521, 75522, 75523, 75524, 75525, 75526, 75527, 75528, 75529, 75530, 75531, 75532, 75533, 75534,
75535, 75536, 75537, 75538, 75539, 75540, 75541, 75542, 75543, 75544, 75545, 75546, 75547, 75548, 75549, 75550,
75551, 75552, 75553, 75554, 75555, 75556, 75557, 75558, 75559, 75560, 75561, 75562, 75563, 75564, 75565, 75566,
75567, 75568, 75569, 75570, 75571, 75572, 75573, 75574, 75575, 75576, 75577, 75578, 75579, 75580, 75581, 75582,
75583, 75584, 75585, 75586, 75587, 75588, 75589, 75590, 75591, 75592, 75593, 75594, 75595, 75596, 75597, 75598,
75599, 75600, 75601, 75602, 75603, 75604, 75605, 75606, 75607, 75608, 75609, 75610, 75611, 75612, 75613, 75614,
75615, 75616, 75617, 75618, 75619, 75620, 75621, 75622, 75623, 75624, 75625, 75626, 75627, 75628, 75629, 75630,
75631, 75632, 75633, 75634, 75635, 75636, 75637, 75638, 75639, 75640, 75641, 75642, 75643, 75644, 75645, 75646,
75647, 75648, 75649, 75650, 75651, 75652, 75653, 75654, 75655, 75656, 75657, 75658, 75659, 75660, 75661, 75662,
75663, 75664, 75665, 75666, 75667, 75668, 75669, 75670, 75671, 75672, 75673, 75674, 75675, 75676, 75677, 75678,
75679, 75680, 75681, 75682, 75683, 75684, 75685, 75686, 75687, 75688, 75689, 75690, 75691, 75692, 75693, 75694,
75695, 75696, 75697, 75698, 75699, 75700, 75701, 75702, 75703, 75704, 75705, 75706, 75707, 75708, 75709, 75710,
** ... 654 like lines cut
**
*Elset, elset=BIN_11
1, 2, 3, 4, 5, 6, 7, 8, 9, 10, 11, 12, 13, 14, 15, 16,
17, 18, 19, 20, 21, 22, 23, 24, 25, 26, 27, 28, 29, 30, 31, 32,
33, 34, 35, 36, 37, 38, 39, 40, 41, 42, 43, 44, 45, 46, 47, 48,
49, 50, 51, 52, 53, 54, 55, 56, 57, 58, 59, 60, 61, 62, 63, 64,
65, 66, 67, 68, 69, 70, 71, 72, 73, 74, 75, 76, 77, 78, 79, 80,
81, 82, 83, 84, 85, 86, 87, 88, 89, 90, 91, 92, 93, 94, 95, 96,
97, 98, 99, 100, 101, 102, 103, 104, 105, 106, 107, 108, 109, 110, 111, 112,
113, 114, 115, 116, 117, 118, 119, 120, 121, 122, 123, 124, 125, 126, 127, 128,
129, 130, 131, 132, 133, 134, 135, 136, 137, 138, 139, 140, 141, 142, 143, 144,
145, 146, 147, 148, 149, 150, 151, 152, 153, 154, 155, 156, 157, 158, 159, 160,
161, 162, 163, 164, 165, 166, 167, 168, 169, 170, 171, 172, 173, 174, 175, 176,
177, 178, 179, 180, 181, 182, 183, 184, 185, 186, 187, 188, 189, 190, 191, 192,
193, 194, 195, 196, 197, 198, 199, 200, 201, 202, 203, 204, 205, 206, 207, 208,
209, 210, 211, 212, 213, 214, 215, 216, 217, 218, 219, 220, 221, 222, 223, 224,
225, 226, 227, 228, 229, 230, 231, 232, 233, 234, 235, 236, 237, 238, 239, 240,
241, 242, 243, 244, 245, 246, 247, 248, 249, 250, 251, 252, 253, 254, 255, 256,
257, 258, 259, 260, 261, 262, 263, 264, 265, 266, 267, 268, 269, 270, 271, 272,
273, 274, 275, 276, 277, 278, 279, 280, 281, 282, 283, 284, 285, 286, 287, 288,
289, 290, 291, 292, 293, 294, 295, 296, 297, 298, 299, 300, 301, 302, 303, 304,
305, 306, 307, 308, 309, 310, 311, 312, 313, 314, 315, 316, 317, 318, 319, 320,
** ... 654 like lines cut
**
*Elset, elset=ALL_ELEMS, generate
 1, 86160, 1
**
** =====  MATERIALS (transverse isotropy per DI bin)  =====
*Material, name=MAT_ANISO_00
*Elastic, type=ENGINEERING CONSTANTS
 9.66586e+09, 4.83293e+09, 4.83293e+09, 0.3000, 0.3000, 0.3000, 3.71764e+09, 3.71764e+09, 1.85882e+09
**
*Material, name=MAT_ANISO_01
*Elastic, type=ENGINEERING CONSTANTS
 9.01552e+09, 4.50776e+09, 4.50776e+09, 0.3000, 0.3000, 0.3000, 3.46751e+09, 3.46751e+09, 1.73375e+09
**
*Material, name=MAT_ANISO_02
*Elastic, type=ENGINEERING CONSTANTS
 8.38908e+09, 4.19454e+09, 4.19454e+09, 0.3000, 0.3000, 0.3000, 3.22657e+09, 3.22657e+09, 1.61329e+09
**
*Material, name=MAT_ANISO_03
*Elastic, type=ENGINEERING CONSTANTS
 7.78656e+09, 3.89328e+09, 3.89328e+09, 0.3000, 0.3000, 0.3000, 2.99483e+09, 2.99483e+09, 1.49742e+09
**
*Material, name=MAT_ANISO_04
*Elastic, type=ENGINEERING CONSTANTS
 7.20795e+09, 3.60398e+09, 3.60398e+09, 0.3000, 0.3000, 0.3000, 2.77229e+09, 2.77229e+09, 1.38614e+09
**
*Material, name=MAT_ANISO_05
*Elastic, type=ENGINEERING CONSTANTS
 6.65326e+09, 3.32663e+09, 3.32663e+09, 0.3000, 0.3000, 0.3000, 2.55894e+09, 2.55894e+09, 1.27947e+09
**
*Material, name=MAT_ANISO_06
*Elastic, type=ENGINEERING CONSTANTS
 6.12247e+09, 3.06123e+09, 3.06123e+09, 0.3000, 0.3000, 0.3000, 2.3548e+09, 2.3548e+09, 1.1774e+09
**
*Material, name=MAT_ANISO_07
*Elastic, type=ENGINEERING CONSTANTS
 5.6156e+09, 2.8078e+09, 2.8078e+09, 0.3000, 0.3000, 0.3000, 2.15984e+09, 2.15984e+09, 1.07992e+09
**
*Material, name=MAT_ANISO_08
*Elastic, type=ENGINEERING CONSTANTS
 5.13263e+09, 2.56632e+09, 2.56632e+09, 0.3000, 0.3000, 0.3000, 1.97409e+09, 1.97409e+09, 9.87045e+08
**
*Material, name=MAT_ANISO_09
*Elastic, type=ENGINEERING CONSTANTS
 4.67358e+09, 2.33679e+09, 2.33679e+09, 0.3000, 0.3000, 0.3000, 1.79753e+09, 1.79753e+09, 8.98766e+08
**
*Material, name=MAT_ANISO_10
*Elastic, type=ENGINEERING CONSTANTS
 4.23844e+09, 2.11922e+09, 2.11922e+09, 0.3000, 0.3000, 0.3000, 1.63017e+09, 1.63017e+09, 8.15085e+08
**
*Material, name=MAT_ANISO_11
*Elastic, type=ENGINEERING CONSTANTS
 3.82722e+09, 1.91361e+09, 1.91361e+09, 0.3000, 0.3000, 0.3000, 1.47201e+09, 1.47201e+09, 7.36003e+08
**
*Material, name=MAT_ANISO_12
*Elastic, type=ENGINEERING CONSTANTS
 3.4399e+09, 1.71995e+09, 1.71995e+09, 0.3000, 0.3000, 0.3000, 1.32304e+09, 1.32304e+09, 6.61519e+08
**
*Material, name=MAT_ANISO_13
*Elastic, type=ENGINEERING CONSTANTS
 3.0765e+09, 1.53825e+09, 1.53825e+09, 0.3000, 0.3000, 0.3000, 1.18327e+09, 1.18327e+09, 5.91634e+08
**
*Material, name=MAT_ANISO_14
*Elastic, type=ENGINEERING CONSTANTS
 2.737e+09, 1.3685e+09, 1.3685e+09, 0.3000, 0.3000, 0.3000, 1.05269e+09, 1.05269e+09, 5.26347e+08
**
*Material, name=MAT_ANISO_15
*Elastic, type=ENGINEERING CONSTANTS
 2.42142e+09, 1.21071e+09, 1.21071e+09, 0.3000, 0.3000, 0.3000, 9.31316e+08, 9.31316e+08, 4.65658e+08
**
*Material, name=MAT_ANISO_16
*Elastic, type=ENGINEERING CONSTANTS
 2.12975e+09, 1.06488e+09, 1.06488e+09, 0.3000, 0.3000, 0.3000, 8.19136e+08, 8.19136e+08, 4.09568e+08
**
*Material, name=MAT_ANISO_17
*Elastic, type=ENGINEERING CONSTANTS
 1.862e+09, 9.30998e+08, 9.30998e+08, 0.3000, 0.3000, 0.3000, 7.16153e+08, 7.16153e+08, 3.58076e+08
**
*Material, name=MAT_ANISO_18
*Elastic, type=ENGINEERING CONSTANTS
 1.61815e+09, 8.09076e+08, 8.09076e+08, 0.3000, 0.3000, 0.3000, 6.22366e+08, 6.22366e+08, 3.11183e+08
**
*Material, name=MAT_ANISO_19
*Elastic, type=ENGINEERING CONSTANTS
 1.39822e+09, 6.99109e+08, 6.99109e+08, 0.3000, 0.3000, 0.3000, 5.37776e+08, 5.37776e+08, 2.68888e+08
**
** =====  SECTIONS  =====
*Solid Section, elset=BIN_03, material=MAT_ANISO_03
,
**
*Solid Section, elset=BIN_04, material=MAT_ANISO_04
,
**
*Solid Section, elset=BIN_06, material=MAT_ANISO_06
,
**
*Solid Section, elset=BIN_07, material=MAT_ANISO_07
,
**
*Solid Section, elset=BIN_08, material=MAT_ANISO_08
,
**
*Solid Section, elset=BIN_10, material=MAT_ANISO_10
,
**
*Solid Section, elset=BIN_11, material=MAT_ANISO_11
,
**
** =====  BOUNDARY CONDITIONS  =====
** BC: inner face (tooth surface) fully fixed – adhesion to tooth
*Boundary
 INNER_FACE, ENCASTRE
**
** =====  STEP  =====
*Step, name=LOAD, nlgeom=NO
 Biofilm pressure loading (1e+06 Pa inward on outer face)
*Static
 0.1, 1.0, 1e-5, 1.0
**
** Concentrated forces: pressure=1e+06 Pa (=1 MPa), forces in N
*Cload
 14377, 1, 0.033614067
 14377, 2, 0.25281274
 14377, 3, -0.022627205
 14378, 1, -0.041345516
 14378, 2, 0.27317363
 14378, 3, -0.012993755
 14379, 1, -0.045439057
 14379, 2, 0.2668243
 14379, 3, -0.0099533015
 14380, 1, -0.21911192
 14380, 2, -0.023331047
 14380, 3, 0.032055288
 14381, 1, -0.15636843
 14381, 2, -0.023737805
 14381, 3, 0.026963067
 14382, 1, -0.26206889
 14382, 2, -0.059955508
 14382, 3, 0.042086185
 14383, 1, -0.11241243
 14383, 2, -0.23797051
** ... 5371 like lines cut
**
*Output, field, variable=PRESELECT
*Output, history
*Node Output, nset=ALL_NODES
 U, RF
*Element Output, elset=ALL_ELEMS
 S, E, MISES
**
*End Step
