** biofilm_conformal_tet.py – Conformal C3D4 biofilm mesh
** STL   : P1_Tooth_23.stl
** DI CSV: p50_field.csv
** Thickness: 0.200 mm  Layers: 4  Total nodes: 8985  Total tets: 43080
** Inner face: tooth STL surface (zero penetration by construction)
**
*Heading
 Conformal biofilm tet mesh - P1_Tooth_23.stl
**
*Node
 1, -69.657928, -45.383583, 26.145887
 2, -69.328705, -45.38681, 25.758587
 3, -69.192703, -45.380817, 26.258251
 4, -67.29612, -39.252289, 29.980015
 5, -67.375061, -39.030472, 29.644772
 6, -67.369034, -38.736446, 29.99329
 7, -66.972237, -37.030758, 34.823738
 8, -66.74762, -37.201523, 34.431892
 9, -67.185341, -36.974525, 34.400417
 10, -67.992691, -36.868366, 32.623665
 11, -67.815163, -36.881153, 33.084137
 12, -67.538597, -37.010468, 32.706177
 13, -71.247223, -41.121857, 27.702221
 14, -71.248375, -41.536453, 27.929348
 15, -71.251076, -41.12949, 28.173306
 16, -68.093056, -43.156647, 31.828054
 17, -67.992081, -42.965641, 32.236023
 18, -68.266808, -43.245583, 32.170998
 19, -68.161812, -41.294853, 23.093561
 20, -68.243721, -41.234756, 22.733173
** ... 8965 like lines cut
**
*Element, type=C3D4
 1, 1, 2, 3, 1800
 2, 1, 2, 1800, 1799
 3, 1, 1799, 1800, 1798
 4, 4, 5, 6, 1803
 5, 4, 5, 1803, 1802
 6, 4, 1802, 1803, 1801
 7, 7, 8, 9, 1806
 8, 7, 8, 1806, 1805
 9, 7, 1805, 1806, 1804
 10, 10, 11, 12, 1809
 11, 10, 11, 1809, 1808
 12, 10, 1808, 1809, 1807
 13, 13, 14, 15, 1812
 14, 13, 14, 1812, 1811
 15, 13, 1811, 1812, 1810
 16, 16, 17, 18, 1815
 17, 16, 17, 1815, 1814
 18, 16, 1814, 1815, 1813
 19, 19, 20, 21, 1818
 20, 19, 20, 1818, 1817
** ... 43060 like lines cut
**
*Nset, nset=INNER_FACE
1, 2, 3, 4, 5, 6, 7, 8, 9, 10, 11, 12, 13, 14, 15, 16,
17, 18, 19, 20, 21, 22, 23, 24, 25, 26, 27, 28, 29, 30, 31, 32,
33, 34, 35, 36, 37, 38, 39, 40, 41, 42, 43, 44, 45, 46, 47, 48,
49, 50, 51, 52, 53, 54, 55, 56, 57, 58, 59, 60, 61, 62, 63, 64,
65, 66, 67, 68, 69, 70, 71, 72, 73, 74, 75, 76, 77, 78, 79, 80,
81, 82, 83, 84, 85, 86, 87, 88, 89, 90, 91, 92, 93, 94, 95, 96,
97, 98, 99, 100, 101, 102, 103, 104, 105, 106, 107, 108, 109, 110, 111, 112,
113, 114, 115, 116, 117, 118, 119, 120, 121, 122, 123, 124, 125, 126, 127, 128,
129, 130, 131, 132, 133, 134, 135, 136, 137, 138, 139, 140, 141, 142, 143, 144,
145, 146, 147, 148, 149, 150, 151, 152, 153, 154, 155, 156, 157, 158, 159, 160,
161, 162, 163, 164, 165, 166, 167, 168, 169, 170, 171, 172, 173, 174, 175, 176,
177, 178, 179, 180, 181, 182, 183, 184, 185, 186, 187, 188, 189, 190, 191, 192,
193, 194, 195, 196, 197, 198, 199, 200, 201, 202, 203, 204, 205, 206, 207, 208,
209, 210, 211, 212, 213, 214, 215, 216, 217, 218, 219, 220, 221, 222, 223, 224,
225, 226, 227, 228, 229, 230, 231, 232, 233, 234, 235, 236, 237, 238, 239, 240,
241, 242, 243, 244, 245, 246, 247, 248, 249, 250, 251, 252, 253, 254, 255, 256,
257, 258, 259, 260, 261, 262, 263, 264, 265, 266, 267, 268, 269, 270, 271, 272,
273, 274, 275, 276, 277, 278, 279, 280, 281, 282, 283, 284, 285, 286, 287, 288,
289, 290, 291, 292, 293, 294, 295, 296, 297, 298, 299, 300, 301, 302, 303, 304,
305, 306, 307, 308, 309, 310, 311, 312, 313, 314, 315, 316, 317, 318, 319, 320,
** ... 93 like lines cut
**
*Nset, nset=OUTER_FACE
7189, 7190, 7191, 7192, 7193, 7194, 7195, 7196, 7197, 7198, 7199, 7200, 7201, 7202, 7203, 7204,
7205, 7206, 7207, 7208, 7209, 7210, 7211, 7212, 7213, 7214, 7215, 7216, 7217, 7218, 7219, 7220,
7221, 7222, 7223, 7224, 7225, 7226, 7227, 7228, 7229, 7230, 7231, 7232, 7233, 7234, 7235, 7236,
7237, 7238, 7239, 7240, 7241, 7242, 7243, 7244, 7245, 7246, 7247, 7248, 7249, 7250, 7251, 7252,
7253, 7254, 7255, 7256, 7257, 7258, 7259, 7260, 7261, 7262, 7263, 7264, 7265, 7266, 7267, 7268,
7269, 7270, 7271, 7272, 7273, 7274, 7275, 7276, 7277, 7278, 7279, 7280, 7281, 7282, 7283, 7284,
7285, 7286, 7287, 7288, 7289, 7290, 7291, 7292, 7293, 7294, 7295, 7296, 7297, 7298, 7299, 7300,
7301, 7302, 7303, 7304, 7305, 7306, 7307, 7308, 7309, 7310, 7311, 7312, 7313, 7314, 7315, 7316,
7317, 7318, 7319, 7320, 7321, 7322, 7323, 7324, 7325, 7326, 7327, 7328, 7329, 7330, 7331, 7332,
7333, 7334, 7335, 7336, 7337, 7338, 7339, 7340, 7341, 7342, 7343, 7344, 7345, 7346, 7347, 7348,
7349, 7350, 7351, 7352, 7353, 7354, 7355, 7356, 7357, 7358, 7359, 7360, 7361, 7362, 7363, 7364,
7365, 7366, 7367, 7368, 7369, 7370, 7371, 7372, 7373, 7374, 7375, 7376, 7377, 7378, 7379, 7380,
7381, 7382, 7383, 7384, 7385, 7386, 7387, 7388, 7389, 7390, 7391, 7392, 7393, 7394, 7395, 7396,
7397, 7398, 7399, 7400, 7401, 7402, 7403, 7404, 7405, 7406, 7407, 7408, 7409, 7410, 7411, 7412,
7413, 7414, 7415, 7416, 7417, 7418, 7419, 7420, 7421, 7422, 7423, 7424, 7425, 7426, 7427, 7428,
7429, 7430, 7431, 7432, 7433, 7434, 7435, 7436, 7437, 7438, 7439, 7440, 7441, 7442, 7443, 7444,
7445, 7446, 7447, 7448, 7449, 7450, 7451, 7452, 7453, 7454, 7455, 7456, 7457, 7458, 7459, 7460,
7461, 7462, 7463, 7464, 7465, 7466, 7467, 7468, 7469, 7470, 7471, 7472, 7473, 7474, 7475, 7476,
7477, 7478, 7479, 7480, 7481, 7482, 7483, 7484, 7485, 7486, 7487, 7488, 7489, 7490, 7491, 7492,
7493, 7494, 7495, 7496, 7497, 7498, 7499, 7500, 7501, 7502, 7503, 7504, 7505, 7506, 7507, 7508,
** ... 93 like lines cut
**
*Nset, nset=BOT_NODES
114, 115, 116, 160, 306, 307, 452, 1248, 1360, 1361, 1496, 1513, 1611, 1628, 1645, 1683,
1684, 1911, 1912, 1913, 1957, 2103, 2104, 2249, 3045, 3157, 3158, 3293, 3310, 3408, 3425, 3442,
3480, 3481, 3708, 3709, 3710, 3754, 3900, 3901, 4046, 4842, 4954, 4955, 5090, 5107, 5168, 5194,
5205, 5222, 5239, 5277, 5278, 5306, 5391, 5505, 5506, 5507, 5551, 5697, 5698, 5843, 5933, 6639,
6653, 6751, 6752, 6887, 6904, 6965, 6991, 7002, 7019, 7036, 7074, 7075, 7103, 7188, 7302, 7303,
7304, 7348, 7494, 7495, 7640, 7730, 8316, 8436, 8450, 8548, 8549, 8684, 8701, 8762, 8788, 8799,
8816, 8833, 8871, 8872, 8900, 8985
**
*Nset, nset=TOP_NODES
111, 112, 113, 149, 150, 151, 157, 158, 159, 191, 288, 289, 290, 321, 322, 388,
393, 394, 395, 471, 484, 485, 631, 632, 635, 636, 637, 660, 675, 729, 730, 910,
911, 942, 959, 962, 963, 995, 1013, 1110, 1165, 1235, 1367, 1475, 1476, 1491, 1538, 1591,
1619, 1627, 1630, 1661, 1730, 1745, 1908, 1909, 1910, 1946, 1947, 1948, 1954, 1955, 1956, 1988,
2085, 2086, 2087, 2118, 2119, 2185, 2190, 2191, 2192, 2268, 2281, 2282, 2428, 2429, 2432, 2433,
2434, 2457, 2472, 2526, 2527, 2528, 2707, 2708, 2739, 2756, 2759, 2760, 2792, 2810, 2907, 2908,
2930, 2962, 3032, 3164, 3272, 3273, 3288, 3335, 3388, 3416, 3424, 3427, 3458, 3527, 3542, 3677,
3705, 3706, 3707, 3743, 3744, 3745, 3751, 3752, 3753, 3785, 3882, 3883, 3884, 3914, 3915, 3916,
3982, 3987, 3988, 3989, 4065, 4078, 4079, 4183, 4225, 4226, 4229, 4230, 4231, 4254, 4269, 4323,
4324, 4325, 4504, 4505, 4536, 4553, 4556, 4557, 4589, 4607, 4704, 4705, 4727, 4759, 4829, 4961,
5069, 5070, 5085, 5132, 5185, 5213, 5221, 5224, 5255, 5324, 5339, 5474, 5502, 5503, 5504, 5540,
5541, 5542, 5548, 5549, 5550, 5582, 5679, 5680, 5681, 5711, 5712, 5713, 5779, 5784, 5785, 5786,
5862, 5874, 5875, 5876, 5980, 6022, 6023, 6026, 6027, 6028, 6051, 6066, 6120, 6121, 6122, 6301,
6302, 6333, 6350, 6353, 6354, 6386, 6404, 6501, 6502, 6524, 6556, 6626, 6758, 6866, 6867, 6882,
6911, 6929, 6982, 7010, 7018, 7021, 7052, 7121, 7136, 7271, 7299, 7300, 7301, 7337, 7338, 7339,
7345, 7346, 7347, 7379, 7476, 7477, 7478, 7508, 7509, 7510, 7576, 7581, 7582, 7583, 7659, 7671,
7672, 7673, 7777, 7819, 7820, 7823, 7824, 7825, 7836, 7848, 7863, 7917, 7918, 7919, 8098, 8099,
8114, 8130, 8147, 8150, 8151, 8183, 8200, 8201, 8223, 8298, 8299, 8321, 8353, 8423, 8555, 8663,
8664, 8679, 8708, 8726, 8779, 8807, 8815, 8818, 8849, 8918, 8933
**
*Nset, nset=ALL_NODES, generate
 1, 8985, 1
**
*Elset, elset=BIN_03
21541, 21542, 21543, 21544, 21545, 21546, 21547, 21548, 21549, 21550, 21551, 21552, 21553, 21554, 21555, 21556,
21557, 21558, 21559, 21560, 21561, 21562, 21563, 21564, 21565, 21566, 21567, 21568, 21569, 21570, 21571, 21572,
21573, 21574, 21575, 21576, 21577, 21578, 21579, 21580, 21581, 21582, 21583, 21584, 21585, 21586, 21587, 21588,
21589, 21590, 21591, 21592, 21593, 21594, 21595, 21596, 21597, 21598, 21599, 21600, 21601, 21602, 21603, 21604,
21605, 21606, 21607, 21608, 21609, 21610, 21611, 21612, 21613, 21614, 21615, 21616, 21617, 21618, 21619, 21620,
21621, 21622, 21623, 21624, 21625, 21626, 21627, 21628, 21629, 21630, 21631, 21632, 21633, 21634, 21635, 21636,
21637, 21638, 21639, 21640, 21641, 21642, 21643, 21644, 21645, 21646, 21647, 21648, 21649, 21650, 21651, 21652,
21653, 21654, 21655, 21656, 21657, 21658, 21659, 21660, 21661, 21662, 21663, 21664, 21665, 21666, 21667, 21668,
21669, 21670, 21671, 21672, 21673, 21674, 21675, 21676, 21677, 21678, 21679, 21680, 21681, 21682, 21683, 21684,
21685, 21686, 21687, 21688, 21689, 21690, 21691, 21692, 21693, 21694, 21695, 21696, 21697, 21698, 21699, 21700,
21701, 21702, 21703, 21704, 21705, 21706, 21707, 21708, 21709, 21710, 21711, 21712, 21713, 21714, 21715, 21716,
21717, 21718, 21719, 21720, 21721, 21722, 21723, 21724, 21725, 21726, 21727, 21728, 21729, 21730, 21731, 21732,
21733, 21734, 21735, 21736, 21737, 21738, 21739, 21740, 21741, 21742, 21743, 21744, 21745, 21746, 21747, 21748,
21749, 21750, 21751, 21752, 21753, 21754, 21755, 21756, 21757, 21758, 21759, 21760, 21761, 21762, 21763, 21764,
21765, 21766, 21767, 21768, 21769, 21770, 21771, 21772, 21773, 21774, 21775, 21776, 21777, 21778, 21779, 21780,
21781, 21782, 21783, 21784, 21785, 21786, 21787, 21788, 21789, 21790, 21791, 21792, 21793, 21794, 21795, 21796,
21797, 21798, 21799, 21800, 21801, 21802, 21803, 21804, 21805, 21806, 21807, 21808, 21809, 21810, 21811, 21812,
21813, 21814, 21815, 21816, 21817, 21818, 21819, 21820, 21821, 21822, 21823, 21824, 21825, 21826, 21827, 21828,
21829, 21830, 21831, 21832, 21833, 21834, 21835, 21836, 21837, 21838, 21839, 21840, 21841, 21842, 21843, 21844,
21845, 21846, 21847, 21848, 21849, 21850, 21851, 21852, 21853, 21854, 21855, 21856, 21857, 21858, 21859, 21860,
** ... 654 like lines cut
**
*Elset, elset=BIN_05
32311, 32312, 32313, 32314, 32315, 32316, 32317, 32318, 32319, 32320, 32321, 32322, 32323, 32324, 32325, 32326,
32327, 32328, 32329, 32330, 32331, 32332, 32333, 32334, 32335, 32336, 32337, 32338, 32339, 32340, 32341, 32342,
32343, 32344, 32345, 32346, 32347, 32348, 32349, 32350, 32351, 32352, 32353, 32354, 32355, 32356, 32357, 32358,
32359, 32360, 32361, 32362, 32363, 32364, 32365, 32366, 32367, 32368, 32369, 32370, 32371, 32372, 32373, 32374,
32375, 32376, 32377, 32378, 32379, 32380, 32381, 32382, 32383, 32384, 32385, 32386, 32387, 32388, 32389, 32390,
32391, 32392, 32393, 32394, 32395, 32396, 32397, 32398, 32399, 32400, 32401, 32402, 32403, 32404, 32405, 32406,
32407, 32408, 32409, 32410, 32411, 32412, 32413, 32414, 32415, 32416, 32417, 32418, 32419, 32420, 32421, 32422,
32423, 32424, 32425, 32426, 32427, 32428, 32429, 32430, 32431, 32432, 32433, 32434, 32435, 32436, 32437, 32438,
32439, 32440, 32441, 32442, 32443, 32444, 32445, 32446, 32447, 32448, 32449, 32450, 32451, 32452, 32453, 32454,
32455, 32456, 32457, 32458, 32459, 32460, 32461, 32462, 32463, 32464, 32465, 32466, 32467, 32468, 32469, 32470,
32471, 32472, 32473, 32474, 32475, 32476, 32477, 32478, 32479, 32480, 32481, 32482, 32483, 32484, 32485, 32486,
32487, 32488, 32489, 32490, 32491, 32492, 32493, 32494, 32495, 32496, 32497, 32498, 32499, 32500, 32501, 32502,
32503, 32504, 32505, 32506, 32507, 32508, 32509, 32510, 32511, 32512, 32513, 32514, 32515, 32516, 32517, 32518,
32519, 32520, 32521, 32522, 32523, 32524, 32525, 32526, 32527, 32528, 32529, 32530, 32531, 32532, 32533, 32534,
32535, 32536, 32537, 32538, 32539, 32540, 32541, 32542, 32543, 32544, 32545, 32546, 32547, 32548, 32549, 32550,
32551, 32552, 32553, 32554, 32555, 32556, 32557, 32558, 32559, 32560, 32561, 32562, 32563, 32564, 32565, 32566,
32567, 32568, 32569, 32570, 32571, 32572, 32573, 32574, 32575, 32576, 32577, 32578, 32579, 32580, 32581, 32582,
32583, 32584, 32585, 32586, 32587, 32588, 32589, 32590, 32591, 32592, 32593, 32594, 32595, 32596, 32597, 32598,
32599, 32600, 32601, 32602, 32603, 32604, 32605, 32606, 32607, 32608, 32609, 32610, 32611, 32612, 32613, 32614,
32615, 32616, 32617, 32618, 32619, 32620, 32621, 32622, 32623, 32624, 32625, 32626, 32627, 32628, 32629, 32630,
** ... 654 like lines cut
**
*Elset, elset=BIN_06
10771, 10772, 10773, 10774, 10775, 10776, 10777, 10778, 10779, 10780, 10781, 10782, 10783, 10784, 10785, 10786,
10787, 10788, 10789, 10790, 10791, 10792, 10793, 10794, 10795, 10796, 10797, 10798, 10799, 10800, 10801, 10802,
10803, 10804, 10805, 10806, 10807, 10808, 10809, 10810, 10811, 10812, 10813, 10814, 10815, 10816, 10817, 10818,
10819, 10820, 10821, 10822, 10823, 10824, 10825, 10826, 10827, 10828, 10829, 10830, 10831, 10832, 10833, 10834,
10835, 10836, 10837, 10838, 10839, 10840, 10841, 10842, 10843, 10844, 10845, 10846, 10847, 10848, 10849, 10850,
10851, 10852, 10853, 10854, 10855, 10856, 10857, 10858, 10859, 10860, 10861, 10862, 10863, 10864, 10865, 10866,
10867, 10868, 10869, 10870, 10871, 10872, 10873, 10874, 10875, 10876, 10877, 10878, 10879, 10880, 10881, 10882,
10883, 10884, 10885, 10886, 10887, 10888, 10889, 10890, 10891, 10892, 10893, 10894, 10895, 10896, 10897, 10898,
10899, 10900, 10901, 10902, 10903, 10904, 10905, 10906, 10907, 10908, 10909, 10910, 10911, 10912, 10913, 10914,
10915, 10916, 10917, 10918, 10919, 10920, 10921, 10922, 10923, 10924, 10925, 10926, 10927, 10928, 10929, 10930,
10931, 10932, 10933, 10934, 10935, 10936, 10937, 10938, 10939, 10940, 10941, 10942, 10943, 10944, 10945, 10946,
10947, 10948, 10949, 10950, 10951, 10952, 10953, 10954, 10955, 10956, 10957, 10958, 10959, 10960, 10961, 10962,
10963, 10964, 10965, 10966, 10967, 10968, 10969, 10970, 10971, 10972, 10973, 10974, 10975, 10976, 10977, 10978,
10979, 10980, 10981, 10982, 10983, 10984, 10985, 10986, 10987, 10988, 10989, 10990, 10991, 10992, 10993, 10994,
10995, 10996, 10997, 10998, 10999, 11000, 11001, 11002, 11003, 11004, 11005, 11006, 11007, 11008, 11009, 11010,
11011, 11012, 11013, 11014, 11015, 11016, 11017, 11018, 11019, 11020, 11021, 11022, 11023, 11024, 11025, 11026,
11027, 11028, 11029, 11030, 11031, 11032, 11033, 11034, 11035, 11036, 11037, 11038, 11039, 11040, 11041, 11042,
11043, 11044, 11045, 11046, 11047, 11048, 11049, 11050, 11051, 11052, 11053, 11054, 11055, 11056, 11057, 11058,
11059, 11060, 11061, 11062, 11063, 11064, 11065, 11066, 11067, 11068, 11069, 11070, 11071, 11072, 11073, 11074,
11075, 11076, 11077, 11078, 11079, 11080, 11081, 11082, 11083, 11084, 11085, 11086, 11087, 11088, 11089, 11090,
** ... 654 like lines cut
**
*Elset, elset=BIN_08
1, 2, 3, 4, 5, 6, 7, 8, 9, 10, 11, 12, 13, 14, 15, 16,
17, 18, 19, 20, 21, 22, 23, 24, 25, 26, 27, 28, 29, 30, 31, 32,
33, 34, 35, 36, 37, 38, 39, 40, 41, 42, 43, 44, 45, 46, 47, 48,
49, 50, 51, 52, 53, 54, 55, 56, 57, 58, 59, 60, 61, 62, 63, 64,
65, 66, 67, 68, 69, 70, 71, 72, 73, 74, 75, 76, 77, 78, 79, 80,
81, 82, 83, 84, 85, 86, 87, 88, 89, 90, 91, 92, 93, 94, 95, 96,
97, 98, 99, 100, 101, 102, 103, 104, 105, 106, 107, 108, 109, 110, 111, 112,
113, 114, 115, 116, 117, 118, 119, 120, 121, 122, 123, 124, 125, 126, 127, 128,
129, 130, 131, 132, 133, 134, 135, 136, 137, 138, 139, 140, 141, 142, 143, 144,
145, 146, 147, 148, 149, 150, 151, 152, 153, 154, 155, 156, 157, 158, 159, 160,
161, 162, 163, 164, 165, 166, 167, 168, 169, 170, 171, 172, 173, 174, 175, 176,
177, 178, 179, 180, 181, 182, 183, 184, 185, 186, 187, 188, 189, 190, 191, 192,
193, 194, 195, 196, 197, 198, 199, 200, 201, 202, 203, 204, 205, 206, 207, 208,
209, 210, 211, 212, 213, 214, 215, 216, 217, 218, 219, 220, 221, 222, 223, 224,
225, 226, 227, 228, 229, 230, 231, 232, 233, 234, 235, 236, 237, 238, 239, 240,
241, 242, 243, 244, 245, 246, 247, 248, 249, 250, 251, 252, 253, 254, 255, 256,
257, 258, 259, 260, 261, 262, 263, 264, 265, 266, 267, 268, 269, 270, 271, 272,
273, 274, 275, 276, 277, 278, 279, 280, 281, 282, 283, 284, 285, 286, 287, 288,
289, 290, 291, 292, 293, 294, 295, 296, 297, 298, 299, 300, 301, 302, 303, 304,
305, 306, 307, 308, 309, 310, 311, 312, 313, 314, 315, 316, 317, 318, 319, 320,
** ... 654 like lines cut
**
*Elset, elset=ALL_ELEMS, generate
 1, 43080, 1
**
** =====  MATERIALS (isotropic per DI bin, E in MPa = N/mm²)  =====
** *Expansion added for growth eigenstrain thermal analogy
** SPATIAL: T_node(x)=T_mean*DI(x)/DI_mean, T_mean=0.00478833
*Material, name=MAT_ANISO_00
*Elastic
 0.000954062, 0.3000
*Expansion, type=ISO, zero=0.0
 1.0
**
*Material, name=MAT_ANISO_01
*Elastic
 0.000865458, 0.3000
*Expansion, type=ISO, zero=0.0
 1.0
**
*Material, name=MAT_ANISO_02
*Elastic
 0.00078122, 0.3000
*Expansion, type=ISO, zero=0.0
 1.0
**
*Material, name=MAT_ANISO_03
*Elastic
 0.000701347, 0.3000
*Expansion, type=ISO, zero=0.0
 1.0
**
*Material, name=MAT_ANISO_04
*Elastic
 0.000625839, 0.3000
*Expansion, type=ISO, zero=0.0
 1.0
**
*Material, name=MAT_ANISO_05
*Elastic
 0.000554697, 0.3000
*Expansion, type=ISO, zero=0.0
 1.0
**
*Material, name=MAT_ANISO_06
*Elastic
 0.000487919, 0.3000
*Expansion, type=ISO, zero=0.0
 1.0
**
*Material, name=MAT_ANISO_07
*Elastic
 0.000425506, 0.3000
*Expansion, type=ISO, zero=0.0
 1.0
**
*Material, name=MAT_ANISO_08
*Elastic
 0.000367459, 0.3000
*Expansion, type=ISO, zero=0.0
 1.0
**
*Material, name=MAT_ANISO_09
*Elastic
 0.000313776, 0.3000
*Expansion, type=ISO, zero=0.0
 1.0
**
*Material, name=MAT_ANISO_10
*Elastic
 0.000264459, 0.3000
*Expansion, type=ISO, zero=0.0
 1.0
**
*Material, name=MAT_ANISO_11
*Elastic
 0.000219507, 0.3000
*Expansion, type=ISO, zero=0.0
 1.0
**
*Material, name=MAT_ANISO_12
*Elastic
 0.000178919, 0.3000
*Expansion, type=ISO, zero=0.0
 1.0
**
*Material, name=MAT_ANISO_13
*Elastic
 0.000142697, 0.3000
*Expansion, type=ISO, zero=0.0
 1.0
**
*Material, name=MAT_ANISO_14
*Elastic
 0.00011084, 0.3000
*Expansion, type=ISO, zero=0.0
 1.0
**
*Material, name=MAT_ANISO_15
*Elastic
 8.33485e-05, 0.3000
*Expansion, type=ISO, zero=0.0
 1.0
**
*Material, name=MAT_ANISO_16
*Elastic
 6.02217e-05, 0.3000
*Expansion, type=ISO, zero=0.0
 1.0
**
*Material, name=MAT_ANISO_17
*Elastic
 4.146e-05, 0.3000
*Expansion, type=ISO, zero=0.0
 1.0
**
*Material, name=MAT_ANISO_18
*Elastic
 2.70633e-05, 0.3000
*Expansion, type=ISO, zero=0.0
 1.0
**
*Material, name=MAT_ANISO_19
*Elastic
 1.70318e-05, 0.3000
*Expansion, type=ISO, zero=0.0
 1.0
**
** =====  SECTIONS  =====
*Solid Section, elset=BIN_03, material=MAT_ANISO_03
,
**
*Solid Section, elset=BIN_05, material=MAT_ANISO_05
,
**
*Solid Section, elset=BIN_06, material=MAT_ANISO_06
,
**
*Solid Section, elset=BIN_08, material=MAT_ANISO_08
,
**
** =====  BOUNDARY CONDITIONS  =====
** BC: inner face (tooth surface) fully fixed – adhesion to tooth
*Boundary
 INNER_FACE, ENCASTRE
**
** =====  STEP 1: GROWTH EIGENSTRAIN (thermal analogy)  =====
** alpha_final=0.01436  eps_growth=0.004788 per direction
** F_g = (1+alpha)I  →  T_growth = eps_growth = alpha/3
** alpha_T=1.0 → eps_thermal = T = eps_growth  (isotropic, stress-free)
** SPATIAL MODE: T_node(x) = T_mean*DI(x)/DI_mean
**   T_mean=0.004763  T_min=0.001332  T_max=0.01107
*Step, name=GROWTH, nlgeom=YES
 Growth-induced eigenstrain: constrained expansion by tooth adhesion
*Static
 1.0, 1.0, 1e-6, 1.0
**
** Per-node temperature (DI spatial field): 8985 nodes
*Temperature
 1, 0.0037429595
 2, 0.0042205234
 3, 0.0034820192
 4, 0.0038663002
 5, 0.0051047702
 6, 0.0051047702
 7, 0.0030460023
 8, 0.0080754596
 9, 0.003508491
 10, 0.006980517
 11, 0.0040935226
 12, 0.0040935226
 13, 0.0066743465
 14, 0.0060598586
 15, 0.0066743465
 16, 0.0050765523
 17, 0.0050765523
 18, 0.0050765523
 19, 0.0050332903
 20, 0.0050332903
** ... 8965 like lines cut
**
*Output, field
*Node Output
 U, RF
*Element Output
 S, E, MISES
**
*End Step
**
** =====  STEP 2: LOAD  =====
*Step, name=LOAD, nlgeom=YES
 Biofilm pressure loading (100 Pa inward on outer face)
*Static
 0.01, 1.0, 1e-6, 0.1
**
** Concentrated forces: pressure=100 Pa (=0.0001 MPa), forces in N
*Cload
 7189, 1, 2.9161412e-06
 7189, 2, 2.1384359e-05
 7189, 3, -1.9306098e-06
 7190, 1, -3.6584885e-06
 7190, 2, 2.3875545e-05
 7190, 3, -1.1676818e-06
 7191, 1, -3.7646262e-06
 7191, 2, 2.208815e-05
 7191, 3, -7.9958926e-07
 7192, 1, -2.0565271e-05
 7192, 2, -2.1599777e-06
 7192, 3, 3.0031553e-06
 7193, 1, -1.4532044e-05
 7193, 2, -2.161094e-06
 7193, 3, 2.4992169e-06
 7194, 1, -2.3979493e-05
 7194, 2, -5.356823e-06
 7194, 3, 3.817844e-06
 7195, 1, -9.3436798e-06
 7195, 2, -2.0254163e-05
** ... 5371 like lines cut
**
*Output, field
*Node Output
 U, RF
*Element Output
 S, E, MISES
**
*End Step
