** biofilm_conformal_tet.py – Conformal C3D4 biofilm mesh
** STL   : P1_Tooth_30.stl
** DI CSV: p50_field.csv
** Thickness: 0.200 mm  Layers: 4  Total nodes: 19830  Total tets: 95136
** Inner face: tooth STL surface (zero penetration by construction)
**
*Heading
 Conformal biofilm tet mesh - P1_Tooth_30.stl
**
*Node
 1, -44.325596, -62.750473, 36.545013
 2, -44.491955, -63.150131, 36.458759
 3, -44.018265, -63.069557, 36.343803
 4, -39.768391, -59.85257, 28.386934
 5, -39.410221, -59.58205, 28.388584
 6, -39.509106, -59.8522, 28.012436
 7, -37.389732, -64.236458, 27.323406
 8, -37.244812, -64.59166, 26.963499
 9, -37.712738, -64.605553, 27.247641
 10, -39.100124, -62.312706, 37.694786
 11, -38.826714, -62.138935, 38.035122
 12, -39.227837, -61.880318, 37.890259
 13, -36.042126, -65.636513, 23.835039
 14, -35.754738, -65.762665, 23.480719
 15, -36.195999, -65.853058, 23.483677
 16, -36.615425, -58.741756, 34.073463
 17, -36.583782, -58.735233, 33.63065
 18, -36.838112, -58.438816, 33.86668
 19, -41.952885, -63.270363, 24.107363
 20, -42.048443, -63.260174, 24.44943
** ... 19810 like lines cut
**
*Element, type=C3D4
 1, 1, 2, 3, 3969
 2, 1, 2, 3969, 3968
 3, 1, 3968, 3969, 3967
 4, 4, 5, 6, 3972
 5, 4, 5, 3972, 3971
 6, 4, 3971, 3972, 3970
 7, 7, 8, 9, 3975
 8, 7, 8, 3975, 3974
 9, 7, 3974, 3975, 3973
 10, 10, 11, 12, 3978
 11, 10, 11, 3978, 3977
 12, 10, 3977, 3978, 3976
 13, 13, 14, 15, 3981
 14, 13, 14, 3981, 3980
 15, 13, 3980, 3981, 3979
 16, 16, 17, 18, 3984
 17, 16, 17, 3984, 3983
 18, 16, 3983, 3984, 3982
 19, 19, 20, 21, 3987
 20, 19, 20, 3987, 3986
** ... 95116 like lines cut
**
*Nset, nset=INNER_FACE
1, 2, 3, 4, 5, 6, 7, 8, 9, 10, 11, 12, 13, 14, 15, 16,
17, 18, 19, 20, 21, 22, 23, 24, 25, 26, 27, 28, 29, 30, 31, 32,
33, 34, 35, 36, 37, 38, 39, 40, 41, 42, 43, 44, 45, 46, 47, 48,
49, 50, 51, 52, 53, 54, 55, 56, 57, 58, 59, 60, 61, 62, 63, 64,
65, 66, 67, 68, 69, 70, 71, 72, 73, 74, 75, 76, 77, 78, 79, 80,
81, 82, 83, 84, 85, 86, 87, 88, 89, 90, 91, 92, 93, 94, 95, 96,
97, 98, 99, 100, 101, 102, 103, 104, 105, 106, 107, 108, 109, 110, 111, 112,
113, 114, 115, 116, 117, 118, 119, 120, 121, 122, 123, 124, 125, 126, 127, 128,
129, 130, 131, 132, 133, 134, 135, 136, 137, 138, 139, 140, 141, 142, 143, 144,
145, 146, 147, 148, 149, 150, 151, 152, 153, 154, 155, 156, 157, 158, 159, 160,
161, 162, 163, 164, 165, 166, 167, 168, 169, 170, 171, 172, 173, 174, 175, 176,
177, 178, 179, 180, 181, 182, 183, 184, 185, 186, 187, 188, 189, 190, 191, 192,
193, 194, 195, 196, 197, 198, 199, 200, 201, 202, 203, 204, 205, 206, 207, 208,
209, 210, 211, 212, 213, 214, 215, 216, 217, 218, 219, 220, 221, 222, 223, 224,
225, 226, 227, 228, 229, 230, 231, 232, 233, 234, 235, 236, 237, 238, 239, 240,
241, 242, 243, 244, 245, 246, 247, 248, 249, 250, 251, 252, 253, 254, 255, 256,
257, 258, 259, 260, 261, 262, 263, 264, 265, 266, 267, 268, 269, 270, 271, 272,
273, 274, 275, 276, 277, 278, 279, 280, 281, 282, 283, 284, 285, 286, 287, 288,
289, 290, 291, 292, 293, 294, 295, 296, 297, 298, 299, 300, 301, 302, 303, 304,
305, 306, 307, 308, 309, 310, 311, 312, 313, 314, 315, 316, 317, 318, 319, 320,
** ... 228 like lines cut
**
*Nset, nset=OUTER_FACE
15865, 15866, 15867, 15868, 15869, 15870, 15871, 15872, 15873, 15874, 15875, 15876, 15877, 15878, 15879, 15880,
15881, 15882, 15883, 15884, 15885, 15886, 15887, 15888, 15889, 15890, 15891, 15892, 15893, 15894, 15895, 15896,
15897, 15898, 15899, 15900, 15901, 15902, 15903, 15904, 15905, 15906, 15907, 15908, 15909, 15910, 15911, 15912,
15913, 15914, 15915, 15916, 15917, 15918, 15919, 15920, 15921, 15922, 15923, 15924, 15925, 15926, 15927, 15928,
15929, 15930, 15931, 15932, 15933, 15934, 15935, 15936, 15937, 15938, 15939, 15940, 15941, 15942, 15943, 15944,
15945, 15946, 15947, 15948, 15949, 15950, 15951, 15952, 15953, 15954, 15955, 15956, 15957, 15958, 15959, 15960,
15961, 15962, 15963, 15964, 15965, 15966, 15967, 15968, 15969, 15970, 15971, 15972, 15973, 15974, 15975, 15976,
15977, 15978, 15979, 15980, 15981, 15982, 15983, 15984, 15985, 15986, 15987, 15988, 15989, 15990, 15991, 15992,
15993, 15994, 15995, 15996, 15997, 15998, 15999, 16000, 16001, 16002, 16003, 16004, 16005, 16006, 16007, 16008,
16009, 16010, 16011, 16012, 16013, 16014, 16015, 16016, 16017, 16018, 16019, 16020, 16021, 16022, 16023, 16024,
16025, 16026, 16027, 16028, 16029, 16030, 16031, 16032, 16033, 16034, 16035, 16036, 16037, 16038, 16039, 16040,
16041, 16042, 16043, 16044, 16045, 16046, 16047, 16048, 16049, 16050, 16051, 16052, 16053, 16054, 16055, 16056,
16057, 16058, 16059, 16060, 16061, 16062, 16063, 16064, 16065, 16066, 16067, 16068, 16069, 16070, 16071, 16072,
16073, 16074, 16075, 16076, 16077, 16078, 16079, 16080, 16081, 16082, 16083, 16084, 16085, 16086, 16087, 16088,
16089, 16090, 16091, 16092, 16093, 16094, 16095, 16096, 16097, 16098, 16099, 16100, 16101, 16102, 16103, 16104,
16105, 16106, 16107, 16108, 16109, 16110, 16111, 16112, 16113, 16114, 16115, 16116, 16117, 16118, 16119, 16120,
16121, 16122, 16123, 16124, 16125, 16126, 16127, 16128, 16129, 16130, 16131, 16132, 16133, 16134, 16135, 16136,
16137, 16138, 16139, 16140, 16141, 16142, 16143, 16144, 16145, 16146, 16147, 16148, 16149, 16150, 16151, 16152,
16153, 16154, 16155, 16156, 16157, 16158, 16159, 16160, 16161, 16162, 16163, 16164, 16165, 16166, 16167, 16168,
16169, 16170, 16171, 16172, 16173, 16174, 16175, 16176, 16177, 16178, 16179, 16180, 16181, 16182, 16183, 16184,
** ... 228 like lines cut
**
*Nset, nset=BOT_NODES
276, 1053, 1759, 1760, 1761, 1783, 1784, 1817, 1842, 1991, 1992, 1993, 2177, 2477, 2478, 2479,
2480, 2481, 2486, 2688, 2956, 2961, 2962, 2998, 3103, 3110, 3111, 3133, 3196, 3197, 3198, 3202,
3333, 3334, 3378, 3383, 3477, 3517, 3615, 3717, 3790, 3816, 3817, 3869, 3877, 3942, 4242, 4459,
4913, 5018, 5019, 5725, 5726, 5727, 5749, 5750, 5783, 5808, 5957, 5958, 5959, 6143, 6443, 6444,
6445, 6446, 6447, 6452, 6654, 6922, 6927, 6928, 6964, 7069, 7076, 7077, 7099, 7162, 7163, 7164,
7168, 7299, 7300, 7344, 7349, 7443, 7483, 7581, 7683, 7756, 7782, 7783, 7835, 7836, 7843, 7908,
8208, 8425, 8879, 8984, 8985, 8986, 9691, 9692, 9693, 9715, 9716, 9749, 9774, 9923, 9924, 9925,
10109, 10409, 10410, 10411, 10412, 10413, 10418, 10620, 10888, 10893, 10894, 10930, 11035, 11042, 11043, 11065,
11128, 11129, 11130, 11134, 11265, 11266, 11310, 11315, 11409, 11449, 11547, 11649, 11722, 11748, 11749, 11801,
11802, 11809, 11874, 12174, 12391, 12844, 12845, 12950, 12951, 12952, 13657, 13658, 13659, 13681, 13682, 13715,
13740, 13889, 13890, 13891, 14075, 14375, 14376, 14377, 14378, 14379, 14384, 14586, 14854, 14859, 14860, 14896,
14973, 15001, 15008, 15009, 15024, 15031, 15094, 15095, 15096, 15100, 15231, 15232, 15276, 15281, 15375, 15415,
15513, 15615, 15688, 15714, 15715, 15767, 15768, 15775, 15840, 16139, 16140, 16357, 16810, 16811, 16916, 16917,
16918, 17623, 17624, 17625, 17647, 17648, 17681, 17706, 17855, 17856, 17857, 18041, 18337, 18341, 18342, 18343,
18344, 18345, 18350, 18552, 18820, 18825, 18826, 18862, 18939, 18967, 18974, 18975, 18990, 18997, 19060, 19061,
19062, 19066, 19197, 19198, 19242, 19247, 19341, 19381, 19479, 19581, 19654, 19680, 19681, 19733, 19734, 19741,
19806
**
*Nset, nset=TOP_NODES
11, 12, 106, 115, 116, 117, 165, 166, 167, 238, 239, 240, 274, 278, 385, 387,
502, 503, 516, 517, 518, 523, 524, 563, 657, 659, 775, 776, 828, 858, 859, 1132,
1133, 1134, 1241, 1290, 1406, 1407, 1408, 2004, 2005, 2069, 2082, 2083, 2084, 2159, 2160, 2256,
2257, 2277, 2311, 2312, 2374, 2551, 2642, 2692, 2748, 2749, 2916, 2918, 3036, 3040, 3069, 3088,
3089, 3098, 3247, 3248, 3295, 3296, 3384, 3385, 3493, 3548, 3549, 3714, 3744, 3753, 3862, 3920,
3928, 3929, 3930, 3937, 3977, 3978, 4072, 4081, 4082, 4083, 4131, 4132, 4133, 4204, 4205, 4206,
4238, 4240, 4244, 4246, 4250, 4351, 4353, 4468, 4469, 4482, 4483, 4484, 4489, 4490, 4529, 4623,
4625, 4741, 4742, 4794, 4824, 4825, 5001, 5098, 5099, 5100, 5207, 5256, 5372, 5373, 5374, 5918,
5970, 5971, 6035, 6048, 6049, 6050, 6125, 6126, 6222, 6223, 6243, 6277, 6278, 6340, 6517, 6545,
6608, 6658, 6714, 6715, 6849, 6882, 6883, 6884, 7002, 7006, 7035, 7054, 7055, 7064, 7213, 7214,
7261, 7262, 7350, 7351, 7459, 7514, 7515, 7680, 7710, 7719, 7811, 7828, 7886, 7894, 7895, 7896,
7903, 7942, 7943, 7944, 8038, 8047, 8048, 8049, 8097, 8098, 8099, 8170, 8171, 8172, 8204, 8206,
8210, 8212, 8216, 8218, 8317, 8319, 8434, 8435, 8448, 8449, 8450, 8454, 8455, 8456, 8495, 8589,
8591, 8707, 8708, 8760, 8790, 8791, 8935, 8967, 9064, 9065, 9066, 9172, 9173, 9222, 9338, 9339,
9340, 9884, 9936, 9937, 9938, 10001, 10014, 10015, 10016, 10091, 10092, 10188, 10189, 10209, 10243, 10244,
10306, 10483, 10511, 10574, 10624, 10680, 10681, 10815, 10848, 10849, 10850, 10968, 10972, 11001, 11003, 11020,
11021, 11030, 11179, 11180, 11227, 11228, 11316, 11317, 11380, 11425, 11480, 11481, 11564, 11646, 11659, 11676,
11685, 11725, 11777, 11794, 11852, 11860, 11861, 11862, 11869, 11908, 11909, 11910, 12004, 12013, 12014, 12015,
12063, 12064, 12065, 12136, 12137, 12138, 12170, 12172, 12176, 12178, 12182, 12183, 12184, 12230, 12283, 12285,
12400, 12401, 12414, 12415, 12416, 12420, 12421, 12422, 12461, 12503, 12504, 12555, 12557, 12673, 12674, 12726,
** ... 14 like lines cut
**
*Nset, nset=ALL_NODES, generate
 1, 19830, 1
**
*Elset, elset=BIN_03
47569, 47570, 47571, 47572, 47573, 47574, 47575, 47576, 47577, 47578, 47579, 47580, 47581, 47582, 47583, 47584,
47585, 47586, 47587, 47588, 47589, 47590, 47591, 47592, 47593, 47594, 47595, 47596, 47597, 47598, 47599, 47600,
47601, 47602, 47603, 47604, 47605, 47606, 47607, 47608, 47609, 47610, 47611, 47612, 47613, 47614, 47615, 47616,
47617, 47618, 47619, 47620, 47621, 47622, 47623, 47624, 47625, 47626, 47627, 47628, 47629, 47630, 47631, 47632,
47633, 47634, 47635, 47636, 47637, 47638, 47639, 47640, 47641, 47642, 47643, 47644, 47645, 47646, 47647, 47648,
47649, 47650, 47651, 47652, 47653, 47654, 47655, 47656, 47657, 47658, 47659, 47660, 47661, 47662, 47663, 47664,
47665, 47666, 47667, 47668, 47669, 47670, 47671, 47672, 47673, 47674, 47675, 47676, 47677, 47678, 47679, 47680,
47681, 47682, 47683, 47684, 47685, 47686, 47687, 47688, 47689, 47690, 47691, 47692, 47693, 47694, 47695, 47696,
47697, 47698, 47699, 47700, 47701, 47702, 47703, 47704, 47705, 47706, 47707, 47708, 47709, 47710, 47711, 47712,
47713, 47714, 47715, 47716, 47717, 47718, 47719, 47720, 47721, 47722, 47723, 47724, 47725, 47726, 47727, 47728,
47729, 47730, 47731, 47732, 47733, 47734, 47735, 47736, 47737, 47738, 47739, 47740, 47741, 47742, 47743, 47744,
47745, 47746, 47747, 47748, 47749, 47750, 47751, 47752, 47753, 47754, 47755, 47756, 47757, 47758, 47759, 47760,
47761, 47762, 47763, 47764, 47765, 47766, 47767, 47768, 47769, 47770, 47771, 47772, 47773, 47774, 47775, 47776,
47777, 47778, 47779, 47780, 47781, 47782, 47783, 47784, 47785, 47786, 47787, 47788, 47789, 47790, 47791, 47792,
47793, 47794, 47795, 47796, 47797, 47798, 47799, 47800, 47801, 47802, 47803, 47804, 47805, 47806, 47807, 47808,
47809, 47810, 47811, 47812, 47813, 47814, 47815, 47816, 47817, 47818, 47819, 47820, 47821, 47822, 47823, 47824,
47825, 47826, 47827, 47828, 47829, 47830, 47831, 47832, 47833, 47834, 47835, 47836, 47837, 47838, 47839, 47840,
47841, 47842, 47843, 47844, 47845, 47846, 47847, 47848, 47849, 47850, 47851, 47852, 47853, 47854, 47855, 47856,
47857, 47858, 47859, 47860, 47861, 47862, 47863, 47864, 47865, 47866, 47867, 47868, 47869, 47870, 47871, 47872,
47873, 47874, 47875, 47876, 47877, 47878, 47879, 47880, 47881, 47882, 47883, 47884, 47885, 47886, 47887, 47888,
** ... 1467 like lines cut
**
*Elset, elset=BIN_05
71353, 71354, 71355, 71356, 71357, 71358, 71359, 71360, 71361, 71362, 71363, 71364, 71365, 71366, 71367, 71368,
71369, 71370, 71371, 71372, 71373, 71374, 71375, 71376, 71377, 71378, 71379, 71380, 71381, 71382, 71383, 71384,
71385, 71386, 71387, 71388, 71389, 71390, 71391, 71392, 71393, 71394, 71395, 71396, 71397, 71398, 71399, 71400,
71401, 71402, 71403, 71404, 71405, 71406, 71407, 71408, 71409, 71410, 71411, 71412, 71413, 71414, 71415, 71416,
71417, 71418, 71419, 71420, 71421, 71422, 71423, 71424, 71425, 71426, 71427, 71428, 71429, 71430, 71431, 71432,
71433, 71434, 71435, 71436, 71437, 71438, 71439, 71440, 71441, 71442, 71443, 71444, 71445, 71446, 71447, 71448,
71449, 71450, 71451, 71452, 71453, 71454, 71455, 71456, 71457, 71458, 71459, 71460, 71461, 71462, 71463, 71464,
71465, 71466, 71467, 71468, 71469, 71470, 71471, 71472, 71473, 71474, 71475, 71476, 71477, 71478, 71479, 71480,
71481, 71482, 71483, 71484, 71485, 71486, 71487, 71488, 71489, 71490, 71491, 71492, 71493, 71494, 71495, 71496,
71497, 71498, 71499, 71500, 71501, 71502, 71503, 71504, 71505, 71506, 71507, 71508, 71509, 71510, 71511, 71512,
71513, 71514, 71515, 71516, 71517, 71518, 71519, 71520, 71521, 71522, 71523, 71524, 71525, 71526, 71527, 71528,
71529, 71530, 71531, 71532, 71533, 71534, 71535, 71536, 71537, 71538, 71539, 71540, 71541, 71542, 71543, 71544,
71545, 71546, 71547, 71548, 71549, 71550, 71551, 71552, 71553, 71554, 71555, 71556, 71557, 71558, 71559, 71560,
71561, 71562, 71563, 71564, 71565, 71566, 71567, 71568, 71569, 71570, 71571, 71572, 71573, 71574, 71575, 71576,
71577, 71578, 71579, 71580, 71581, 71582, 71583, 71584, 71585, 71586, 71587, 71588, 71589, 71590, 71591, 71592,
71593, 71594, 71595, 71596, 71597, 71598, 71599, 71600, 71601, 71602, 71603, 71604, 71605, 71606, 71607, 71608,
71609, 71610, 71611, 71612, 71613, 71614, 71615, 71616, 71617, 71618, 71619, 71620, 71621, 71622, 71623, 71624,
71625, 71626, 71627, 71628, 71629, 71630, 71631, 71632, 71633, 71634, 71635, 71636, 71637, 71638, 71639, 71640,
71641, 71642, 71643, 71644, 71645, 71646, 71647, 71648, 71649, 71650, 71651, 71652, 71653, 71654, 71655, 71656,
71657, 71658, 71659, 71660, 71661, 71662, 71663, 71664, 71665, 71666, 71667, 71668, 71669, 71670, 71671, 71672,
** ... 1467 like lines cut
**
*Elset, elset=BIN_06
23785, 23786, 23787, 23788, 23789, 23790, 23791, 23792, 23793, 23794, 23795, 23796, 23797, 23798, 23799, 23800,
23801, 23802, 23803, 23804, 23805, 23806, 23807, 23808, 23809, 23810, 23811, 23812, 23813, 23814, 23815, 23816,
23817, 23818, 23819, 23820, 23821, 23822, 23823, 23824, 23825, 23826, 23827, 23828, 23829, 23830, 23831, 23832,
23833, 23834, 23835, 23836, 23837, 23838, 23839, 23840, 23841, 23842, 23843, 23844, 23845, 23846, 23847, 23848,
23849, 23850, 23851, 23852, 23853, 23854, 23855, 23856, 23857, 23858, 23859, 23860, 23861, 23862, 23863, 23864,
23865, 23866, 23867, 23868, 23869, 23870, 23871, 23872, 23873, 23874, 23875, 23876, 23877, 23878, 23879, 23880,
23881, 23882, 23883, 23884, 23885, 23886, 23887, 23888, 23889, 23890, 23891, 23892, 23893, 23894, 23895, 23896,
23897, 23898, 23899, 23900, 23901, 23902, 23903, 23904, 23905, 23906, 23907, 23908, 23909, 23910, 23911, 23912,
23913, 23914, 23915, 23916, 23917, 23918, 23919, 23920, 23921, 23922, 23923, 23924, 23925, 23926, 23927, 23928,
23929, 23930, 23931, 23932, 23933, 23934, 23935, 23936, 23937, 23938, 23939, 23940, 23941, 23942, 23943, 23944,
23945, 23946, 23947, 23948, 23949, 23950, 23951, 23952, 23953, 23954, 23955, 23956, 23957, 23958, 23959, 23960,
23961, 23962, 23963, 23964, 23965, 23966, 23967, 23968, 23969, 23970, 23971, 23972, 23973, 23974, 23975, 23976,
23977, 23978, 23979, 23980, 23981, 23982, 23983, 23984, 23985, 23986, 23987, 23988, 23989, 23990, 23991, 23992,
23993, 23994, 23995, 23996, 23997, 23998, 23999, 24000, 24001, 24002, 24003, 24004, 24005, 24006, 24007, 24008,
24009, 24010, 24011, 24012, 24013, 24014, 24015, 24016, 24017, 24018, 24019, 24020, 24021, 24022, 24023, 24024,
24025, 24026, 24027, 24028, 24029, 24030, 24031, 24032, 24033, 24034, 24035, 24036, 24037, 24038, 24039, 24040,
24041, 24042, 24043, 24044, 24045, 24046, 24047, 24048, 24049, 24050, 24051, 24052, 24053, 24054, 24055, 24056,
24057, 24058, 24059, 24060, 24061, 24062, 24063, 24064, 24065, 24066, 24067, 24068, 24069, 24070, 24071, 24072,
24073, 24074, 24075, 24076, 24077, 24078, 24079, 24080, 24081, 24082, 24083, 24084, 24085, 24086, 24087, 24088,
24089, 24090, 24091, 24092, 24093, 24094, 24095, 24096, 24097, 24098, 24099, 24100, 24101, 24102, 24103, 24104,
** ... 1467 like lines cut
**
*Elset, elset=BIN_08
1, 2, 3, 4, 5, 6, 7, 8, 9, 10, 11, 12, 13, 14, 15, 16,
17, 18, 19, 20, 21, 22, 23, 24, 25, 26, 27, 28, 29, 30, 31, 32,
33, 34, 35, 36, 37, 38, 39, 40, 41, 42, 43, 44, 45, 46, 47, 48,
49, 50, 51, 52, 53, 54, 55, 56, 57, 58, 59, 60, 61, 62, 63, 64,
65, 66, 67, 68, 69, 70, 71, 72, 73, 74, 75, 76, 77, 78, 79, 80,
81, 82, 83, 84, 85, 86, 87, 88, 89, 90, 91, 92, 93, 94, 95, 96,
97, 98, 99, 100, 101, 102, 103, 104, 105, 106, 107, 108, 109, 110, 111, 112,
113, 114, 115, 116, 117, 118, 119, 120, 121, 122, 123, 124, 125, 126, 127, 128,
129, 130, 131, 132, 133, 134, 135, 136, 137, 138, 139, 140, 141, 142, 143, 144,
145, 146, 147, 148, 149, 150, 151, 152, 153, 154, 155, 156, 157, 158, 159, 160,
161, 162, 163, 164, 165, 166, 167, 168, 169, 170, 171, 172, 173, 174, 175, 176,
177, 178, 179, 180, 181, 182, 183, 184, 185, 186, 187, 188, 189, 190, 191, 192,
193, 194, 195, 196, 197, 198, 199, 200, 201, 202, 203, 204, 205, 206, 207, 208,
209, 210, 211, 212, 213, 214, 215, 216, 217, 218, 219, 220, 221, 222, 223, 224,
225, 226, 227, 228, 229, 230, 231, 232, 233, 234, 235, 236, 237, 238, 239, 240,
241, 242, 243, 244, 245, 246, 247, 248, 249, 250, 251, 252, 253, 254, 255, 256,
257, 258, 259, 260, 261, 262, 263, 264, 265, 266, 267, 268, 269, 270, 271, 272,
273, 274, 275, 276, 277, 278, 279, 280, 281, 282, 283, 284, 285, 286, 287, 288,
289, 290, 291, 292, 293, 294, 295, 296, 297, 298, 299, 300, 301, 302, 303, 304,
305, 306, 307, 308, 309, 310, 311, 312, 313, 314, 315, 316, 317, 318, 319, 320,
** ... 1467 like lines cut
**
*Elset, elset=ALL_ELEMS, generate
 1, 95136, 1
**
** =====  MATERIALS (isotropic per DI bin, E in MPa = N/mm²)  =====
** *Expansion added for growth eigenstrain thermal analogy
** SPATIAL: T_node(x)=T_mean*DI(x)/DI_mean, T_mean=0.005865
*Material, name=MAT_ANISO_00
*Elastic
 0.000955518, 0.3000
*Expansion, type=ISO, zero=0.0
 1.0
**
*Material, name=MAT_ANISO_01
*Elastic
 0.000869622, 0.3000
*Expansion, type=ISO, zero=0.0
 1.0
**
*Material, name=MAT_ANISO_02
*Elastic
 0.000787815, 0.3000
*Expansion, type=ISO, zero=0.0
 1.0
**
*Material, name=MAT_ANISO_03
*Elastic
 0.000710097, 0.3000
*Expansion, type=ISO, zero=0.0
 1.0
**
*Material, name=MAT_ANISO_04
*Elastic
 0.000636469, 0.3000
*Expansion, type=ISO, zero=0.0
 1.0
**
*Material, name=MAT_ANISO_05
*Elastic
 0.000566931, 0.3000
*Expansion, type=ISO, zero=0.0
 1.0
**
*Material, name=MAT_ANISO_06
*Elastic
 0.000501482, 0.3000
*Expansion, type=ISO, zero=0.0
 1.0
**
*Material, name=MAT_ANISO_07
*Elastic
 0.000440123, 0.3000
*Expansion, type=ISO, zero=0.0
 1.0
**
*Material, name=MAT_ANISO_08
*Elastic
 0.000382853, 0.3000
*Expansion, type=ISO, zero=0.0
 1.0
**
*Material, name=MAT_ANISO_09
*Elastic
 0.000329673, 0.3000
*Expansion, type=ISO, zero=0.0
 1.0
**
*Material, name=MAT_ANISO_10
*Elastic
 0.000280582, 0.3000
*Expansion, type=ISO, zero=0.0
 1.0
**
*Material, name=MAT_ANISO_11
*Elastic
 0.000235581, 0.3000
*Expansion, type=ISO, zero=0.0
 1.0
**
*Material, name=MAT_ANISO_12
*Elastic
 0.000194669, 0.3000
*Expansion, type=ISO, zero=0.0
 1.0
**
*Material, name=MAT_ANISO_13
*Elastic
 0.000157847, 0.3000
*Expansion, type=ISO, zero=0.0
 1.0
**
*Material, name=MAT_ANISO_14
*Elastic
 0.000125115, 0.3000
*Expansion, type=ISO, zero=0.0
 1.0
**
*Material, name=MAT_ANISO_15
*Elastic
 9.64717e-05, 0.3000
*Expansion, type=ISO, zero=0.0
 1.0
**
*Material, name=MAT_ANISO_16
*Elastic
 7.19183e-05, 0.3000
*Expansion, type=ISO, zero=0.0
 1.0
**
*Material, name=MAT_ANISO_17
*Elastic
 5.14544e-05, 0.3000
*Expansion, type=ISO, zero=0.0
 1.0
**
*Material, name=MAT_ANISO_18
*Elastic
 3.508e-05, 0.3000
*Expansion, type=ISO, zero=0.0
 1.0
**
*Material, name=MAT_ANISO_19
*Elastic
 2.27953e-05, 0.3000
*Expansion, type=ISO, zero=0.0
 1.0
**
** =====  SECTIONS  =====
*Solid Section, elset=BIN_03, material=MAT_ANISO_03
,
**
*Solid Section, elset=BIN_05, material=MAT_ANISO_05
,
**
*Solid Section, elset=BIN_06, material=MAT_ANISO_06
,
**
*Solid Section, elset=BIN_08, material=MAT_ANISO_08
,
**
** =====  BOUNDARY CONDITIONS  =====
** BC: inner face (tooth surface) fully fixed – adhesion to tooth
*Boundary
 INNER_FACE, ENCASTRE
**
** =====  STEP 1: GROWTH EIGENSTRAIN (thermal analogy)  =====
** alpha_final=0.01759  eps_growth=0.005865 per direction
** F_g = (1+alpha)I  →  T_growth = eps_growth = alpha/3
** alpha_T=1.0 → eps_thermal = T = eps_growth  (isotropic, stress-free)
** SPATIAL MODE: T_node(x) = T_mean*DI(x)/DI_mean
**   T_mean=0.005633  T_min=0.001064  T_max=0.01324
*Step, name=GROWTH, nlgeom=YES
 Growth-induced eigenstrain: constrained expansion by tooth adhesion
*Static
 1.0, 1.0, 1e-6, 1.0
**
** Per-node temperature (DI spatial field): 19830 nodes
*Temperature
 1, 0.0097079644
 2, 0.0045067285
 3, 0.0097079644
 4, 0.0072781648
 5, 0.0076912449
 6, 0.0072781648
 7, 0.0049098587
 8, 0.0060540845
 9, 0.0060540845
 10, 0.0085060273
 11, 0.0044793748
 12, 0.0085060273
 13, 0.0053075148
 14, 0.0074489308
 15, 0.0053075148
 16, 0.0040146079
 17, 0.0040146079
 18, 0.0037608659
 19, 0.0075208878
 20, 0.0075208878
** ... 19810 like lines cut
**
*Output, field
*Node Output
 U, RF
*Element Output
 S, E, MISES
**
*End Step
**
** =====  STEP 2: LOAD  =====
*Step, name=LOAD, nlgeom=YES
 Biofilm pressure loading (100 Pa inward on outer face)
*Static
 0.01, 1.0, 1e-6, 0.1
**
** Concentrated forces: pressure=100 Pa (=0.0001 MPa), forces in N
*Cload
 15865, 1, -5.5432783e-06
 15865, 2, 4.816516e-06
 15865, 3, -1.4463302e-05
 15866, 1, -4.5012955e-06
 15866, 2, 5.5813178e-06
 15866, 3, -1.6411134e-05
 15867, 1, -3.8994448e-06
 15867, 2, 3.5098642e-06
 15867, 3, -1.7887278e-05
 15868, 1, 8.9956773e-06
 15868, 2, -1.2692152e-05
 15868, 3, 6.6628357e-06
 15869, 1, 9.7394657e-06
 15869, 2, -1.3696437e-05
 15869, 3, 6.819624e-06
 15870, 1, 1.0745386e-05
 15870, 2, -1.4225472e-05
 15870, 3, 6.8040976e-06
 15871, 1, 4.7256681e-06
 15871, 2, -1.0347296e-05
** ... 11878 like lines cut
**
*Output, field
*Node Output
 U, RF
*Element Output
 S, E, MISES
**
*End Step
