** biofilm_conformal_tet.py – Conformal C3D4 biofilm mesh
** STL   : P1_Tooth_31.stl
** DI CSV: p50_field.csv
** Thickness: 0.200 mm  Layers: 4  Total nodes: 16785  Total tets: 80520
** Inner face: tooth STL surface (zero penetration by construction)
**
*Heading
 Conformal biofilm tet mesh - P1_Tooth_31.stl
**
*Node
 1, -33.253532, -79.523407, 32.251614
 2, -33.519169, -79.486374, 32.530327
 3, -33.60675, -79.694366, 32.086658
 4, -34.386986, -73.721893, 27.464001
 5, -34.741222, -73.53717, 27.824945
 6, -34.179218, -73.446342, 27.813993
 7, -40.89323, -77.688828, 37.669827
 8, -41.175545, -77.395775, 37.892273
 9, -41.246346, -77.528679, 37.459328
 10, -31.325212, -78.935036, 23.216717
 11, -31.572411, -79.028381, 23.585085
 12, -31.689241, -79.212013, 23.168053
 13, -40.838448, -77.227791, 34.680775
 14, -40.526855, -77.550285, 34.385765
 15, -40.7229, -77.67527, 34.891708
 16, -37.4972, -68.526909, 37.146854
 17, -37.023685, -68.649254, 37.292088
 18, -37.121632, -68.488617, 36.854069
 19, -38.393551, -70.650482, 31.943382
 20, -37.987083, -70.49453, 32.102844
** ... 16765 like lines cut
**
*Element, type=C3D4
 1, 1, 2, 3, 3360
 2, 1, 2, 3360, 3359
 3, 1, 3359, 3360, 3358
 4, 4, 5, 6, 3363
 5, 4, 5, 3363, 3362
 6, 4, 3362, 3363, 3361
 7, 7, 8, 9, 3366
 8, 7, 8, 3366, 3365
 9, 7, 3365, 3366, 3364
 10, 10, 11, 12, 3369
 11, 10, 11, 3369, 3368
 12, 10, 3368, 3369, 3367
 13, 13, 14, 15, 3372
 14, 13, 14, 3372, 3371
 15, 13, 3371, 3372, 3370
 16, 16, 17, 18, 3375
 17, 16, 17, 3375, 3374
 18, 16, 3374, 3375, 3373
 19, 19, 20, 21, 3378
 20, 19, 20, 3378, 3377
** ... 80500 like lines cut
**
*Nset, nset=INNER_FACE
1, 2, 3, 4, 5, 6, 7, 8, 9, 10, 11, 12, 13, 14, 15, 16,
17, 18, 19, 20, 21, 22, 23, 24, 25, 26, 27, 28, 29, 30, 31, 32,
33, 34, 35, 36, 37, 38, 39, 40, 41, 42, 43, 44, 45, 46, 47, 48,
49, 50, 51, 52, 53, 54, 55, 56, 57, 58, 59, 60, 61, 62, 63, 64,
65, 66, 67, 68, 69, 70, 71, 72, 73, 74, 75, 76, 77, 78, 79, 80,
81, 82, 83, 84, 85, 86, 87, 88, 89, 90, 91, 92, 93, 94, 95, 96,
97, 98, 99, 100, 101, 102, 103, 104, 105, 106, 107, 108, 109, 110, 111, 112,
113, 114, 115, 116, 117, 118, 119, 120, 121, 122, 123, 124, 125, 126, 127, 128,
129, 130, 131, 132, 133, 134, 135, 136, 137, 138, 139, 140, 141, 142, 143, 144,
145, 146, 147, 148, 149, 150, 151, 152, 153, 154, 155, 156, 157, 158, 159, 160,
161, 162, 163, 164, 165, 166, 167, 168, 169, 170, 171, 172, 173, 174, 175, 176,
177, 178, 179, 180, 181, 182, 183, 184, 185, 186, 187, 188, 189, 190, 191, 192,
193, 194, 195, 196, 197, 198, 199, 200, 201, 202, 203, 204, 205, 206, 207, 208,
209, 210, 211, 212, 213, 214, 215, 216, 217, 218, 219, 220, 221, 222, 223, 224,
225, 226, 227, 228, 229, 230, 231, 232, 233, 234, 235, 236, 237, 238, 239, 240,
241, 242, 243, 244, 245, 246, 247, 248, 249, 250, 251, 252, 253, 254, 255, 256,
257, 258, 259, 260, 261, 262, 263, 264, 265, 266, 267, 268, 269, 270, 271, 272,
273, 274, 275, 276, 277, 278, 279, 280, 281, 282, 283, 284, 285, 286, 287, 288,
289, 290, 291, 292, 293, 294, 295, 296, 297, 298, 299, 300, 301, 302, 303, 304,
305, 306, 307, 308, 309, 310, 311, 312, 313, 314, 315, 316, 317, 318, 319, 320,
** ... 190 like lines cut
**
*Nset, nset=OUTER_FACE
13429, 13430, 13431, 13432, 13433, 13434, 13435, 13436, 13437, 13438, 13439, 13440, 13441, 13442, 13443, 13444,
13445, 13446, 13447, 13448, 13449, 13450, 13451, 13452, 13453, 13454, 13455, 13456, 13457, 13458, 13459, 13460,
13461, 13462, 13463, 13464, 13465, 13466, 13467, 13468, 13469, 13470, 13471, 13472, 13473, 13474, 13475, 13476,
13477, 13478, 13479, 13480, 13481, 13482, 13483, 13484, 13485, 13486, 13487, 13488, 13489, 13490, 13491, 13492,
13493, 13494, 13495, 13496, 13497, 13498, 13499, 13500, 13501, 13502, 13503, 13504, 13505, 13506, 13507, 13508,
13509, 13510, 13511, 13512, 13513, 13514, 13515, 13516, 13517, 13518, 13519, 13520, 13521, 13522, 13523, 13524,
13525, 13526, 13527, 13528, 13529, 13530, 13531, 13532, 13533, 13534, 13535, 13536, 13537, 13538, 13539, 13540,
13541, 13542, 13543, 13544, 13545, 13546, 13547, 13548, 13549, 13550, 13551, 13552, 13553, 13554, 13555, 13556,
13557, 13558, 13559, 13560, 13561, 13562, 13563, 13564, 13565, 13566, 13567, 13568, 13569, 13570, 13571, 13572,
13573, 13574, 13575, 13576, 13577, 13578, 13579, 13580, 13581, 13582, 13583, 13584, 13585, 13586, 13587, 13588,
13589, 13590, 13591, 13592, 13593, 13594, 13595, 13596, 13597, 13598, 13599, 13600, 13601, 13602, 13603, 13604,
13605, 13606, 13607, 13608, 13609, 13610, 13611, 13612, 13613, 13614, 13615, 13616, 13617, 13618, 13619, 13620,
13621, 13622, 13623, 13624, 13625, 13626, 13627, 13628, 13629, 13630, 13631, 13632, 13633, 13634, 13635, 13636,
13637, 13638, 13639, 13640, 13641, 13642, 13643, 13644, 13645, 13646, 13647, 13648, 13649, 13650, 13651, 13652,
13653, 13654, 13655, 13656, 13657, 13658, 13659, 13660, 13661, 13662, 13663, 13664, 13665, 13666, 13667, 13668,
13669, 13670, 13671, 13672, 13673, 13674, 13675, 13676, 13677, 13678, 13679, 13680, 13681, 13682, 13683, 13684,
13685, 13686, 13687, 13688, 13689, 13690, 13691, 13692, 13693, 13694, 13695, 13696, 13697, 13698, 13699, 13700,
13701, 13702, 13703, 13704, 13705, 13706, 13707, 13708, 13709, 13710, 13711, 13712, 13713, 13714, 13715, 13716,
13717, 13718, 13719, 13720, 13721, 13722, 13723, 13724, 13725, 13726, 13727, 13728, 13729, 13730, 13731, 13732,
13733, 13734, 13735, 13736, 13737, 13738, 13739, 13740, 13741, 13742, 13743, 13744, 13745, 13746, 13747, 13748,
** ... 190 like lines cut
**
*Nset, nset=BOT_NODES
122, 123, 144, 145, 146, 179, 454, 455, 472, 960, 961, 962, 1023, 2812, 2876, 2877,
2975, 2976, 2981, 3017, 3228, 3229, 3479, 3480, 3501, 3502, 3503, 3535, 3536, 3811, 3812, 3829,
4317, 4318, 4319, 4380, 6169, 6233, 6234, 6332, 6333, 6338, 6374, 6585, 6586, 6836, 6837, 6858,
6859, 6860, 6892, 6893, 7168, 7169, 7186, 7674, 7675, 7676, 7737, 9526, 9590, 9591, 9689, 9690,
9695, 9731, 9942, 9943, 10192, 10193, 10194, 10215, 10216, 10217, 10249, 10250, 10525, 10526, 10543, 11031,
11032, 11033, 11094, 12883, 12947, 12948, 13046, 13047, 13052, 13088, 13299, 13300, 13301, 13476, 13504, 13549,
13550, 13551, 13572, 13573, 13574, 13606, 13607, 13882, 13883, 13900, 14388, 14389, 14390, 14451, 16240, 16304,
16305, 16403, 16404, 16409, 16445, 16656, 16657, 16658
**
*Nset, nset=TOP_NODES
80, 81, 448, 450, 451, 452, 501, 502, 503, 515, 516, 517, 518, 519, 520, 549,
550, 551, 597, 598, 670, 671, 672, 701, 710, 711, 756, 757, 758, 762, 763, 787,
897, 1093, 1094, 1095, 1142, 1221, 1222, 1223, 1235, 1236, 1463, 1464, 1562, 1563, 1564, 1603,
1641, 1655, 1657, 1664, 1665, 1670, 1671, 1741, 1742, 1877, 1878, 1994, 2033, 2034, 2069, 2086,
2087, 2088, 2182, 2215, 2267, 2268, 2269, 2365, 2423, 2440, 2441, 2444, 2445, 2474, 2475, 2600,
2601, 2602, 2620, 2700, 2717, 2733, 2734, 2745, 2746, 2781, 2797, 2839, 2878, 2909, 2954, 2974,
2990, 3057, 3091, 3096, 3098, 3134, 3150, 3257, 3258, 3315, 3325, 3334, 3437, 3438, 3805, 3807,
3808, 3809, 3858, 3859, 3860, 3872, 3873, 3874, 3875, 3876, 3877, 3906, 3907, 3908, 3954, 3955,
4027, 4028, 4029, 4058, 4067, 4068, 4113, 4114, 4115, 4119, 4120, 4143, 4144, 4254, 4450, 4451,
4452, 4499, 4578, 4579, 4580, 4592, 4593, 4668, 4820, 4821, 4919, 4920, 4921, 4960, 4998, 5012,
5013, 5014, 5021, 5022, 5027, 5028, 5098, 5099, 5234, 5235, 5351, 5390, 5391, 5426, 5443, 5444,
5445, 5539, 5565, 5572, 5624, 5625, 5626, 5722, 5780, 5785, 5797, 5798, 5801, 5802, 5821, 5831,
5832, 5898, 5957, 5958, 5959, 5976, 5977, 6057, 6074, 6090, 6091, 6093, 6094, 6102, 6103, 6138,
6154, 6196, 6235, 6266, 6311, 6331, 6347, 6414, 6448, 6453, 6455, 6491, 6507, 6614, 6615, 6672,
6682, 6691, 6794, 6795, 6796, 6963, 7161, 7162, 7164, 7165, 7166, 7215, 7216, 7217, 7229, 7230,
7231, 7232, 7233, 7234, 7263, 7264, 7265, 7311, 7312, 7384, 7385, 7386, 7415, 7424, 7425, 7470,
7471, 7472, 7476, 7477, 7499, 7500, 7501, 7611, 7807, 7808, 7809, 7856, 7857, 7935, 7936, 7937,
7949, 7950, 8025, 8177, 8178, 8276, 8277, 8278, 8317, 8355, 8356, 8369, 8370, 8371, 8378, 8379,
8384, 8385, 8416, 8455, 8456, 8591, 8592, 8703, 8708, 8747, 8748, 8783, 8800, 8801, 8802, 8896,
8921, 8922, 8929, 8981, 8982, 8983, 9079, 9137, 9142, 9144, 9154, 9155, 9158, 9159, 9178, 9188,
** ... 21 like lines cut
**
*Nset, nset=ALL_NODES, generate
 1, 16785, 1
**
*Elset, elset=BIN_04
40261, 40262, 40263, 40264, 40265, 40266, 40267, 40268, 40269, 40270, 40271, 40272, 40273, 40274, 40275, 40276,
40277, 40278, 40279, 40280, 40281, 40282, 40283, 40284, 40285, 40286, 40287, 40288, 40289, 40290, 40291, 40292,
40293, 40294, 40295, 40296, 40297, 40298, 40299, 40300, 40301, 40302, 40303, 40304, 40305, 40306, 40307, 40308,
40309, 40310, 40311, 40312, 40313, 40314, 40315, 40316, 40317, 40318, 40319, 40320, 40321, 40322, 40323, 40324,
40325, 40326, 40327, 40328, 40329, 40330, 40331, 40332, 40333, 40334, 40335, 40336, 40337, 40338, 40339, 40340,
40341, 40342, 40343, 40344, 40345, 40346, 40347, 40348, 40349, 40350, 40351, 40352, 40353, 40354, 40355, 40356,
40357, 40358, 40359, 40360, 40361, 40362, 40363, 40364, 40365, 40366, 40367, 40368, 40369, 40370, 40371, 40372,
40373, 40374, 40375, 40376, 40377, 40378, 40379, 40380, 40381, 40382, 40383, 40384, 40385, 40386, 40387, 40388,
40389, 40390, 40391, 40392, 40393, 40394, 40395, 40396, 40397, 40398, 40399, 40400, 40401, 40402, 40403, 40404,
40405, 40406, 40407, 40408, 40409, 40410, 40411, 40412, 40413, 40414, 40415, 40416, 40417, 40418, 40419, 40420,
40421, 40422, 40423, 40424, 40425, 40426, 40427, 40428, 40429, 40430, 40431, 40432, 40433, 40434, 40435, 40436,
40437, 40438, 40439, 40440, 40441, 40442, 40443, 40444, 40445, 40446, 40447, 40448, 40449, 40450, 40451, 40452,
40453, 40454, 40455, 40456, 40457, 40458, 40459, 40460, 40461, 40462, 40463, 40464, 40465, 40466, 40467, 40468,
40469, 40470, 40471, 40472, 40473, 40474, 40475, 40476, 40477, 40478, 40479, 40480, 40481, 40482, 40483, 40484,
40485, 40486, 40487, 40488, 40489, 40490, 40491, 40492, 40493, 40494, 40495, 40496, 40497, 40498, 40499, 40500,
40501, 40502, 40503, 40504, 40505, 40506, 40507, 40508, 40509, 40510, 40511, 40512, 40513, 40514, 40515, 40516,
40517, 40518, 40519, 40520, 40521, 40522, 40523, 40524, 40525, 40526, 40527, 40528, 40529, 40530, 40531, 40532,
40533, 40534, 40535, 40536, 40537, 40538, 40539, 40540, 40541, 40542, 40543, 40544, 40545, 40546, 40547, 40548,
40549, 40550, 40551, 40552, 40553, 40554, 40555, 40556, 40557, 40558, 40559, 40560, 40561, 40562, 40563, 40564,
40565, 40566, 40567, 40568, 40569, 40570, 40571, 40572, 40573, 40574, 40575, 40576, 40577, 40578, 40579, 40580,
** ... 2497 like lines cut
**
*Elset, elset=BIN_06
20131, 20132, 20133, 20134, 20135, 20136, 20137, 20138, 20139, 20140, 20141, 20142, 20143, 20144, 20145, 20146,
20147, 20148, 20149, 20150, 20151, 20152, 20153, 20154, 20155, 20156, 20157, 20158, 20159, 20160, 20161, 20162,
20163, 20164, 20165, 20166, 20167, 20168, 20169, 20170, 20171, 20172, 20173, 20174, 20175, 20176, 20177, 20178,
20179, 20180, 20181, 20182, 20183, 20184, 20185, 20186, 20187, 20188, 20189, 20190, 20191, 20192, 20193, 20194,
20195, 20196, 20197, 20198, 20199, 20200, 20201, 20202, 20203, 20204, 20205, 20206, 20207, 20208, 20209, 20210,
20211, 20212, 20213, 20214, 20215, 20216, 20217, 20218, 20219, 20220, 20221, 20222, 20223, 20224, 20225, 20226,
20227, 20228, 20229, 20230, 20231, 20232, 20233, 20234, 20235, 20236, 20237, 20238, 20239, 20240, 20241, 20242,
20243, 20244, 20245, 20246, 20247, 20248, 20249, 20250, 20251, 20252, 20253, 20254, 20255, 20256, 20257, 20258,
20259, 20260, 20261, 20262, 20263, 20264, 20265, 20266, 20267, 20268, 20269, 20270, 20271, 20272, 20273, 20274,
20275, 20276, 20277, 20278, 20279, 20280, 20281, 20282, 20283, 20284, 20285, 20286, 20287, 20288, 20289, 20290,
20291, 20292, 20293, 20294, 20295, 20296, 20297, 20298, 20299, 20300, 20301, 20302, 20303, 20304, 20305, 20306,
20307, 20308, 20309, 20310, 20311, 20312, 20313, 20314, 20315, 20316, 20317, 20318, 20319, 20320, 20321, 20322,
20323, 20324, 20325, 20326, 20327, 20328, 20329, 20330, 20331, 20332, 20333, 20334, 20335, 20336, 20337, 20338,
20339, 20340, 20341, 20342, 20343, 20344, 20345, 20346, 20347, 20348, 20349, 20350, 20351, 20352, 20353, 20354,
20355, 20356, 20357, 20358, 20359, 20360, 20361, 20362, 20363, 20364, 20365, 20366, 20367, 20368, 20369, 20370,
20371, 20372, 20373, 20374, 20375, 20376, 20377, 20378, 20379, 20380, 20381, 20382, 20383, 20384, 20385, 20386,
20387, 20388, 20389, 20390, 20391, 20392, 20393, 20394, 20395, 20396, 20397, 20398, 20399, 20400, 20401, 20402,
20403, 20404, 20405, 20406, 20407, 20408, 20409, 20410, 20411, 20412, 20413, 20414, 20415, 20416, 20417, 20418,
20419, 20420, 20421, 20422, 20423, 20424, 20425, 20426, 20427, 20428, 20429, 20430, 20431, 20432, 20433, 20434,
20435, 20436, 20437, 20438, 20439, 20440, 20441, 20442, 20443, 20444, 20445, 20446, 20447, 20448, 20449, 20450,
** ... 1239 like lines cut
**
*Elset, elset=BIN_08
1, 2, 3, 4, 5, 6, 7, 8, 9, 10, 11, 12, 13, 14, 15, 16,
17, 18, 19, 20, 21, 22, 23, 24, 25, 26, 27, 28, 29, 30, 31, 32,
33, 34, 35, 36, 37, 38, 39, 40, 41, 42, 43, 44, 45, 46, 47, 48,
49, 50, 51, 52, 53, 54, 55, 56, 57, 58, 59, 60, 61, 62, 63, 64,
65, 66, 67, 68, 69, 70, 71, 72, 73, 74, 75, 76, 77, 78, 79, 80,
81, 82, 83, 84, 85, 86, 87, 88, 89, 90, 91, 92, 93, 94, 95, 96,
97, 98, 99, 100, 101, 102, 103, 104, 105, 106, 107, 108, 109, 110, 111, 112,
113, 114, 115, 116, 117, 118, 119, 120, 121, 122, 123, 124, 125, 126, 127, 128,
129, 130, 131, 132, 133, 134, 135, 136, 137, 138, 139, 140, 141, 142, 143, 144,
145, 146, 147, 148, 149, 150, 151, 152, 153, 154, 155, 156, 157, 158, 159, 160,
161, 162, 163, 164, 165, 166, 167, 168, 169, 170, 171, 172, 173, 174, 175, 176,
177, 178, 179, 180, 181, 182, 183, 184, 185, 186, 187, 188, 189, 190, 191, 192,
193, 194, 195, 196, 197, 198, 199, 200, 201, 202, 203, 204, 205, 206, 207, 208,
209, 210, 211, 212, 213, 214, 215, 216, 217, 218, 219, 220, 221, 222, 223, 224,
225, 226, 227, 228, 229, 230, 231, 232, 233, 234, 235, 236, 237, 238, 239, 240,
241, 242, 243, 244, 245, 246, 247, 248, 249, 250, 251, 252, 253, 254, 255, 256,
257, 258, 259, 260, 261, 262, 263, 264, 265, 266, 267, 268, 269, 270, 271, 272,
273, 274, 275, 276, 277, 278, 279, 280, 281, 282, 283, 284, 285, 286, 287, 288,
289, 290, 291, 292, 293, 294, 295, 296, 297, 298, 299, 300, 301, 302, 303, 304,
305, 306, 307, 308, 309, 310, 311, 312, 313, 314, 315, 316, 317, 318, 319, 320,
** ... 1239 like lines cut
**
*Elset, elset=ALL_ELEMS, generate
 1, 80520, 1
**
** =====  MATERIALS (isotropic per DI bin, E in MPa = N/mm²)  =====
** *Expansion added for growth eigenstrain thermal analogy
** SPATIAL: T_node(x)=T_mean*DI(x)/DI_mean, T_mean=0.00235167
*Material, name=MAT_ANISO_00
*Elastic
 0.000959336, 0.3000
*Expansion, type=ISO, zero=0.0
 1.0
**
*Material, name=MAT_ANISO_01
*Elastic
 0.000880567, 0.3000
*Expansion, type=ISO, zero=0.0
 1.0
**
*Material, name=MAT_ANISO_02
*Elastic
 0.000805209, 0.3000
*Expansion, type=ISO, zero=0.0
 1.0
**
*Material, name=MAT_ANISO_03
*Elastic
 0.000733261, 0.3000
*Expansion, type=ISO, zero=0.0
 1.0
**
*Material, name=MAT_ANISO_04
*Elastic
 0.000664725, 0.3000
*Expansion, type=ISO, zero=0.0
 1.0
**
*Material, name=MAT_ANISO_05
*Elastic
 0.000599599, 0.3000
*Expansion, type=ISO, zero=0.0
 1.0
**
*Material, name=MAT_ANISO_06
*Elastic
 0.000537883, 0.3000
*Expansion, type=ISO, zero=0.0
 1.0
**
*Material, name=MAT_ANISO_07
*Elastic
 0.000479579, 0.3000
*Expansion, type=ISO, zero=0.0
 1.0
**
*Material, name=MAT_ANISO_08
*Elastic
 0.000424686, 0.3000
*Expansion, type=ISO, zero=0.0
 1.0
**
*Material, name=MAT_ANISO_09
*Elastic
 0.000373203, 0.3000
*Expansion, type=ISO, zero=0.0
 1.0
**
*Material, name=MAT_ANISO_10
*Elastic
 0.000325131, 0.3000
*Expansion, type=ISO, zero=0.0
 1.0
**
*Material, name=MAT_ANISO_11
*Elastic
 0.00028047, 0.3000
*Expansion, type=ISO, zero=0.0
 1.0
**
*Material, name=MAT_ANISO_12
*Elastic
 0.000239219, 0.3000
*Expansion, type=ISO, zero=0.0
 1.0
**
*Material, name=MAT_ANISO_13
*Elastic
 0.00020138, 0.3000
*Expansion, type=ISO, zero=0.0
 1.0
**
*Material, name=MAT_ANISO_14
*Elastic
 0.000166951, 0.3000
*Expansion, type=ISO, zero=0.0
 1.0
**
*Material, name=MAT_ANISO_15
*Elastic
 0.000135933, 0.3000
*Expansion, type=ISO, zero=0.0
 1.0
**
*Material, name=MAT_ANISO_16
*Elastic
 0.000108325, 0.3000
*Expansion, type=ISO, zero=0.0
 1.0
**
*Material, name=MAT_ANISO_17
*Elastic
 8.4129e-05, 0.3000
*Expansion, type=ISO, zero=0.0
 1.0
**
*Material, name=MAT_ANISO_18
*Elastic
 6.33433e-05, 0.3000
*Expansion, type=ISO, zero=0.0
 1.0
**
*Material, name=MAT_ANISO_19
*Elastic
 4.59684e-05, 0.3000
*Expansion, type=ISO, zero=0.0
 1.0
**
** =====  SECTIONS  =====
*Solid Section, elset=BIN_04, material=MAT_ANISO_04
,
**
*Solid Section, elset=BIN_06, material=MAT_ANISO_06
,
**
*Solid Section, elset=BIN_08, material=MAT_ANISO_08
,
**
** =====  BOUNDARY CONDITIONS  =====
** BC: inner face (tooth surface) fully fixed – adhesion to tooth
*Boundary
 INNER_FACE, ENCASTRE
**
** =====  STEP 1: GROWTH EIGENSTRAIN (thermal analogy)  =====
** alpha_final=0.007055  eps_growth=0.002352 per direction
** F_g = (1+alpha)I  →  T_growth = eps_growth = alpha/3
** alpha_T=1.0 → eps_thermal = T = eps_growth  (isotropic, stress-free)
** SPATIAL MODE: T_node(x) = T_mean*DI(x)/DI_mean
**   T_mean=0.002255  T_min=0.0007127  T_max=0.005404
*Step, name=GROWTH, nlgeom=YES
 Growth-induced eigenstrain: constrained expansion by tooth adhesion
*Static
 1.0, 1.0, 1e-6, 1.0
**
** Per-node temperature (DI spatial field): 16785 nodes
*Temperature
 1, 0.0025099781
 2, 0.0013142803
 3, 0.00085789288
 4, 0.0025327986
 5, 0.0024347308
 6, 0.0025327986
 7, 0.0010406946
 8, 0.0010406946
 9, 0.003211183
 10, 0.00096378215
 11, 0.0017859895
 12, 0.0017859895
 13, 0.0030905173
 14, 0.0028532913
 15, 0.0037665288
 16, 0.0024315515
 17, 0.0024315515
 18, 0.0024315515
 19, 0.0023337512
 20, 0.0023337512
** ... 16765 like lines cut
**
*Output, field
*Node Output
 U, RF
*Element Output
 S, E, MISES
**
*End Step
**
** =====  STEP 2: LOAD  =====
*Step, name=LOAD, nlgeom=YES
 Biofilm pressure loading (100 Pa inward on outer face)
*Static
 0.01, 1.0, 1e-6, 0.1
**
** Concentrated forces: pressure=100 Pa (=0.0001 MPa), forces in N
*Cload
 13429, 1, -3.8213617e-06
 13429, 2, 1.1618124e-05
 13429, 3, -5.2390869e-06
 13430, 1, -5.1984503e-06
 13430, 2, 1.5577709e-05
 13430, 3, -6.9259006e-06
 13431, 1, -5.0417134e-06
 13431, 2, 1.6743002e-05
 13431, 3, -7.4054305e-06
 13432, 1, 2.8506155e-06
 13432, 2, -1.5148473e-05
 13432, 3, 1.0068308e-05
 13433, 1, 3.500629e-06
 13433, 2, -2.1814918e-05
 13433, 3, 1.5308003e-05
 13434, 1, 3.6032872e-06
 13434, 2, -2.0061301e-05
 13434, 3, 1.3637726e-05
 13435, 1, 9.2299347e-06
 13435, 2, 1.4106791e-05
** ... 10051 like lines cut
**
*Output, field
*Node Output
 U, RF
*Element Output
 S, E, MISES
**
*End Step
