** biofilm_tooth_tie_assembly.py – Two-layer Tie model
** Tooth: T23 (S3 shell, E=18600 MPa, nu=0.31)
** Biofilm: C3D4 conformal (8 layers, t=0.500 mm)
** DI CSV: abaqus_field_dh_3d.csv
** Shell thickness: 0.500 mm
** Tooth: 1797 nodes, 3590 S3 | Biofilm: 16173 nodes, 86160 C3D4
** Interface: *Tie (biofilm INNER → tooth shell)
** Pressure: 1e+06 Pa (= 1 MPa) on biofilm outer
**
*Heading
 Two-layer biofilm+tooth: T23 (Tie constraint)
**
** ===== NODES =====
** Tooth nodes: 1 .. 1797
** Biofilm nodes: 1798 .. 17970
*Node
 1, -69.657928, -45.383583, 26.145887
 2, -69.328705, -45.38681, 25.758587
 3, -69.192703, -45.380817, 26.258251
 4, -67.29612, -39.252289, 29.980015
 5, -67.375061, -39.030472, 29.644772
 6, -67.369034, -38.736446, 29.99329
 7, -66.972237, -37.030758, 34.823738
 8, -66.74762, -37.201523, 34.431892
 9, -67.185341, -36.974525, 34.400417
 10, -67.992691, -36.868366, 32.623665
 11, -67.815163, -36.881153, 33.084137
 12, -67.538597, -37.010468, 32.706177
 13, -71.247223, -41.121857, 27.702221
 14, -71.248375, -41.536453, 27.929348
 15, -71.251076, -41.12949, 28.173306
 16, -68.093056, -43.156647, 31.828054
 17, -67.992081, -42.965641, 32.236023
 18, -68.266808, -43.245583, 32.170998
 19, -68.161812, -41.294853, 23.093561
 20, -68.243721, -41.234756, 22.733173
** ... 17950 like lines cut
**
** ===== ELEMENTS =====
*Element, type=S3
 1, 1, 2, 3
 2, 4, 5, 6
 3, 7, 8, 9
 4, 10, 11, 12
 5, 13, 14, 15
 6, 16, 17, 18
 7, 19, 20, 21
 8, 22, 9, 8
 9, 23, 24, 8
 10, 25, 23, 7
 11, 26, 27, 28
 12, 29, 30, 31
 13, 32, 33, 34
 14, 35, 36, 37
 15, 38, 39, 40
 16, 41, 42, 43
 17, 44, 45, 46
 18, 47, 48, 49
 19, 50, 51, 52
 20, 53, 54, 55
** ... 3570 like lines cut
**
*Element, type=C3D4
 3591, 1798, 1799, 1800, 3597
 3592, 1798, 1799, 3597, 3596
 3593, 1798, 3596, 3597, 3595
 3594, 1801, 1802, 1803, 3600
 3595, 1801, 1802, 3600, 3599
 3596, 1801, 3599, 3600, 3598
 3597, 1804, 1805, 1806, 3603
 3598, 1804, 1805, 3603, 3602
 3599, 1804, 3602, 3603, 3601
 3600, 1807, 1808, 1809, 3606
 3601, 1807, 1808, 3606, 3605
 3602, 1807, 3605, 3606, 3604
 3603, 1810, 1811, 1812, 3609
 3604, 1810, 1811, 3609, 3608
 3605, 1810, 3608, 3609, 3607
 3606, 1813, 1814, 1815, 3612
 3607, 1813, 1814, 3612, 3611
 3608, 1813, 3611, 3612, 3610
 3609, 1816, 1817, 1818, 3615
 3610, 1816, 1817, 3615, 3614
** ... 86140 like lines cut
**
** ===== NODE SETS =====
*Nset, nset=TOOTH_ALL
1, 2, 3, 4, 5, 6, 7, 8, 9, 10, 11, 12, 13, 14, 15, 16,
17, 18, 19, 20, 21, 22, 23, 24, 25, 26, 27, 28, 29, 30, 31, 32,
33, 34, 35, 36, 37, 38, 39, 40, 41, 42, 43, 44, 45, 46, 47, 48,
49, 50, 51, 52, 53, 54, 55, 56, 57, 58, 59, 60, 61, 62, 63, 64,
65, 66, 67, 68, 69, 70, 71, 72, 73, 74, 75, 76, 77, 78, 79, 80,
81, 82, 83, 84, 85, 86, 87, 88, 89, 90, 91, 92, 93, 94, 95, 96,
97, 98, 99, 100, 101, 102, 103, 104, 105, 106, 107, 108, 109, 110, 111, 112,
113, 114, 115, 116, 117, 118, 119, 120, 121, 122, 123, 124, 125, 126, 127, 128,
129, 130, 131, 132, 133, 134, 135, 136, 137, 138, 139, 140, 141, 142, 143, 144,
145, 146, 147, 148, 149, 150, 151, 152, 153, 154, 155, 156, 157, 158, 159, 160,
161, 162, 163, 164, 165, 166, 167, 168, 169, 170, 171, 172, 173, 174, 175, 176,
177, 178, 179, 180, 181, 182, 183, 184, 185, 186, 187, 188, 189, 190, 191, 192,
193, 194, 195, 196, 197, 198, 199, 200, 201, 202, 203, 204, 205, 206, 207, 208,
209, 210, 211, 212, 213, 214, 215, 216, 217, 218, 219, 220, 221, 222, 223, 224,
225, 226, 227, 228, 229, 230, 231, 232, 233, 234, 235, 236, 237, 238, 239, 240,
241, 242, 243, 244, 245, 246, 247, 248, 249, 250, 251, 252, 253, 254, 255, 256,
257, 258, 259, 260, 261, 262, 263, 264, 265, 266, 267, 268, 269, 270, 271, 272,
273, 274, 275, 276, 277, 278, 279, 280, 281, 282, 283, 284, 285, 286, 287, 288,
289, 290, 291, 292, 293, 294, 295, 296, 297, 298, 299, 300, 301, 302, 303, 304,
305, 306, 307, 308, 309, 310, 311, 312, 313, 314, 315, 316, 317, 318, 319, 320,
** ... 93 like lines cut
**
*Nset, nset=TOOTH_BASE
65, 66, 67, 83, 84, 85, 111, 112, 113, 130, 149, 150, 151, 157, 158, 159,
191, 192, 193, 205, 206, 229, 232, 233, 234, 248, 264, 265, 288, 289, 290, 303,
304, 305, 320, 321, 322, 388, 389, 390, 393, 394, 395, 423, 424, 431, 440, 441,
468, 469, 470, 471, 483, 484, 485, 547, 548, 562, 564, 576, 589, 590, 591, 616,
627, 628, 631, 632, 635, 636, 637, 643, 644, 645, 648, 649, 660, 675, 696, 729,
730, 731, 733, 764, 768, 769, 787, 788, 789, 821, 835, 859, 867, 883, 884, 888,
889, 890, 910, 911, 926, 927, 928, 931, 934, 942, 959, 962, 963, 995, 997, 998,
999, 1002, 1003, 1004, 1010, 1011, 1012, 1013, 1014, 1035, 1036, 1044, 1045, 1046, 1049, 1050,
1084, 1106, 1107, 1110, 1111, 1113, 1114, 1133, 1165, 1211, 1235, 1236, 1241, 1242, 1264, 1267,
1359, 1367, 1378, 1390, 1392, 1393, 1418, 1446, 1447, 1448, 1475, 1476, 1491, 1520, 1538, 1554,
1581, 1591, 1619, 1625, 1626, 1627, 1630, 1635, 1643, 1654, 1661, 1679, 1692, 1704, 1711, 1714,
1730, 1738, 1745, 1759
**
*Nset, nset=BIO_INNER
1798, 1799, 1800, 1801, 1802, 1803, 1804, 1805, 1806, 1807, 1808, 1809, 1810, 1811, 1812, 1813,
1814, 1815, 1816, 1817, 1818, 1819, 1820, 1821, 1822, 1823, 1824, 1825, 1826, 1827, 1828, 1829,
1830, 1831, 1832, 1833, 1834, 1835, 1836, 1837, 1838, 1839, 1840, 1841, 1842, 1843, 1844, 1845,
1846, 1847, 1848, 1849, 1850, 1851, 1852, 1853, 1854, 1855, 1856, 1857, 1858, 1859, 1860, 1861,
1862, 1863, 1864, 1865, 1866, 1867, 1868, 1869, 1870, 1871, 1872, 1873, 1874, 1875, 1876, 1877,
1878, 1879, 1880, 1881, 1882, 1883, 1884, 1885, 1886, 1887, 1888, 1889, 1890, 1891, 1892, 1893,
1894, 1895, 1896, 1897, 1898, 1899, 1900, 1901, 1902, 1903, 1904, 1905, 1906, 1907, 1908, 1909,
1910, 1911, 1912, 1913, 1914, 1915, 1916, 1917, 1918, 1919, 1920, 1921, 1922, 1923, 1924, 1925,
1926, 1927, 1928, 1929, 1930, 1931, 1932, 1933, 1934, 1935, 1936, 1937, 1938, 1939, 1940, 1941,
1942, 1943, 1944, 1945, 1946, 1947, 1948, 1949, 1950, 1951, 1952, 1953, 1954, 1955, 1956, 1957,
1958, 1959, 1960, 1961, 1962, 1963, 1964, 1965, 1966, 1967, 1968, 1969, 1970, 1971, 1972, 1973,
1974, 1975, 1976, 1977, 1978, 1979, 1980, 1981, 1982, 1983, 1984, 1985, 1986, 1987, 1988, 1989,
1990, 1991, 1992, 1993, 1994, 1995, 1996, 1997, 1998, 1999, 2000, 2001, 2002, 2003, 2004, 2005,
2006, 2007, 2008, 2009, 2010, 2011, 2012, 2013, 2014, 2015, 2016, 2017, 2018, 2019, 2020, 2021,
2022, 2023, 2024, 2025, 2026, 2027, 2028, 2029, 2030, 2031, 2032, 2033, 2034, 2035, 2036, 2037,
2038, 2039, 2040, 2041, 2042, 2043, 2044, 2045, 2046, 2047, 2048, 2049, 2050, 2051, 2052, 2053,
2054, 2055, 2056, 2057, 2058, 2059, 2060, 2061, 2062, 2063, 2064, 2065, 2066, 2067, 2068, 2069,
2070, 2071, 2072, 2073, 2074, 2075, 2076, 2077, 2078, 2079, 2080, 2081, 2082, 2083, 2084, 2085,
2086, 2087, 2088, 2089, 2090, 2091, 2092, 2093, 2094, 2095, 2096, 2097, 2098, 2099, 2100, 2101,
2102, 2103, 2104, 2105, 2106, 2107, 2108, 2109, 2110, 2111, 2112, 2113, 2114, 2115, 2116, 2117,
** ... 93 like lines cut
**
*Nset, nset=BIO_OUTER
16174, 16175, 16176, 16177, 16178, 16179, 16180, 16181, 16182, 16183, 16184, 16185, 16186, 16187, 16188, 16189,
16190, 16191, 16192, 16193, 16194, 16195, 16196, 16197, 16198, 16199, 16200, 16201, 16202, 16203, 16204, 16205,
16206, 16207, 16208, 16209, 16210, 16211, 16212, 16213, 16214, 16215, 16216, 16217, 16218, 16219, 16220, 16221,
16222, 16223, 16224, 16225, 16226, 16227, 16228, 16229, 16230, 16231, 16232, 16233, 16234, 16235, 16236, 16237,
16238, 16239, 16240, 16241, 16242, 16243, 16244, 16245, 16246, 16247, 16248, 16249, 16250, 16251, 16252, 16253,
16254, 16255, 16256, 16257, 16258, 16259, 16260, 16261, 16262, 16263, 16264, 16265, 16266, 16267, 16268, 16269,
16270, 16271, 16272, 16273, 16274, 16275, 16276, 16277, 16278, 16279, 16280, 16281, 16282, 16283, 16284, 16285,
16286, 16287, 16288, 16289, 16290, 16291, 16292, 16293, 16294, 16295, 16296, 16297, 16298, 16299, 16300, 16301,
16302, 16303, 16304, 16305, 16306, 16307, 16308, 16309, 16310, 16311, 16312, 16313, 16314, 16315, 16316, 16317,
16318, 16319, 16320, 16321, 16322, 16323, 16324, 16325, 16326, 16327, 16328, 16329, 16330, 16331, 16332, 16333,
16334, 16335, 16336, 16337, 16338, 16339, 16340, 16341, 16342, 16343, 16344, 16345, 16346, 16347, 16348, 16349,
16350, 16351, 16352, 16353, 16354, 16355, 16356, 16357, 16358, 16359, 16360, 16361, 16362, 16363, 16364, 16365,
16366, 16367, 16368, 16369, 16370, 16371, 16372, 16373, 16374, 16375, 16376, 16377, 16378, 16379, 16380, 16381,
16382, 16383, 16384, 16385, 16386, 16387, 16388, 16389, 16390, 16391, 16392, 16393, 16394, 16395, 16396, 16397,
16398, 16399, 16400, 16401, 16402, 16403, 16404, 16405, 16406, 16407, 16408, 16409, 16410, 16411, 16412, 16413,
16414, 16415, 16416, 16417, 16418, 16419, 16420, 16421, 16422, 16423, 16424, 16425, 16426, 16427, 16428, 16429,
16430, 16431, 16432, 16433, 16434, 16435, 16436, 16437, 16438, 16439, 16440, 16441, 16442, 16443, 16444, 16445,
16446, 16447, 16448, 16449, 16450, 16451, 16452, 16453, 16454, 16455, 16456, 16457, 16458, 16459, 16460, 16461,
16462, 16463, 16464, 16465, 16466, 16467, 16468, 16469, 16470, 16471, 16472, 16473, 16474, 16475, 16476, 16477,
16478, 16479, 16480, 16481, 16482, 16483, 16484, 16485, 16486, 16487, 16488, 16489, 16490, 16491, 16492, 16493,
** ... 93 like lines cut
**
*Nset, nset=BIO_ALL
1798, 1799, 1800, 1801, 1802, 1803, 1804, 1805, 1806, 1807, 1808, 1809, 1810, 1811, 1812, 1813,
1814, 1815, 1816, 1817, 1818, 1819, 1820, 1821, 1822, 1823, 1824, 1825, 1826, 1827, 1828, 1829,
1830, 1831, 1832, 1833, 1834, 1835, 1836, 1837, 1838, 1839, 1840, 1841, 1842, 1843, 1844, 1845,
1846, 1847, 1848, 1849, 1850, 1851, 1852, 1853, 1854, 1855, 1856, 1857, 1858, 1859, 1860, 1861,
1862, 1863, 1864, 1865, 1866, 1867, 1868, 1869, 1870, 1871, 1872, 1873, 1874, 1875, 1876, 1877,
1878, 1879, 1880, 1881, 1882, 1883, 1884, 1885, 1886, 1887, 1888, 1889, 1890, 1891, 1892, 1893,
1894, 1895, 1896, 1897, 1898, 1899, 1900, 1901, 1902, 1903, 1904, 1905, 1906, 1907, 1908, 1909,
1910, 1911, 1912, 1913, 1914, 1915, 1916, 1917, 1918, 1919, 1920, 1921, 1922, 1923, 1924, 1925,
1926, 1927, 1928, 1929, 1930, 1931, 1932, 1933, 1934, 1935, 1936, 1937, 1938, 1939, 1940, 1941,
1942, 1943, 1944, 1945, 1946, 1947, 1948, 1949, 1950, 1951, 1952, 1953, 1954, 1955, 1956, 1957,
1958, 1959, 1960, 1961, 1962, 1963, 1964, 1965, 1966, 1967, 1968, 1969, 1970, 1971, 1972, 1973,
1974, 1975, 1976, 1977, 1978, 1979, 1980, 1981, 1982, 1983, 1984, 1985, 1986, 1987, 1988, 1989,
1990, 1991, 1992, 1993, 1994, 1995, 1996, 1997, 1998, 1999, 2000, 2001, 2002, 2003, 2004, 2005,
2006, 2007, 2008, 2009, 2010, 2011, 2012, 2013, 2014, 2015, 2016, 2017, 2018, 2019, 2020, 2021,
2022, 2023, 2024, 2025, 2026, 2027, 2028, 2029, 2030, 2031, 2032, 2033, 2034, 2035, 2036, 2037,
2038, 2039, 2040, 2041, 2042, 2043, 2044, 2045, 2046, 2047, 2048, 2049, 2050, 2051, 2052, 2053,
2054, 2055, 2056, 2057, 2058, 2059, 2060, 2061, 2062, 2063, 2064, 2065, 2066, 2067, 2068, 2069,
2070, 2071, 2072, 2073, 2074, 2075, 2076, 2077, 2078, 2079, 2080, 2081, 2082, 2083, 2084, 2085,
2086, 2087, 2088, 2089, 2090, 2091, 2092, 2093, 2094, 2095, 2096, 2097, 2098, 2099, 2100, 2101,
2102, 2103, 2104, 2105, 2106, 2107, 2108, 2109, 2110, 2111, 2112, 2113, 2114, 2115, 2116, 2117,
** ... 991 like lines cut
**
** ===== ELEMENT SETS =====
*Elset, elset=TOOTH_ELEMS
1, 2, 3, 4, 5, 6, 7, 8, 9, 10, 11, 12, 13, 14, 15, 16,
17, 18, 19, 20, 21, 22, 23, 24, 25, 26, 27, 28, 29, 30, 31, 32,
33, 34, 35, 36, 37, 38, 39, 40, 41, 42, 43, 44, 45, 46, 47, 48,
49, 50, 51, 52, 53, 54, 55, 56, 57, 58, 59, 60, 61, 62, 63, 64,
65, 66, 67, 68, 69, 70, 71, 72, 73, 74, 75, 76, 77, 78, 79, 80,
81, 82, 83, 84, 85, 86, 87, 88, 89, 90, 91, 92, 93, 94, 95, 96,
97, 98, 99, 100, 101, 102, 103, 104, 105, 106, 107, 108, 109, 110, 111, 112,
113, 114, 115, 116, 117, 118, 119, 120, 121, 122, 123, 124, 125, 126, 127, 128,
129, 130, 131, 132, 133, 134, 135, 136, 137, 138, 139, 140, 141, 142, 143, 144,
145, 146, 147, 148, 149, 150, 151, 152, 153, 154, 155, 156, 157, 158, 159, 160,
161, 162, 163, 164, 165, 166, 167, 168, 169, 170, 171, 172, 173, 174, 175, 176,
177, 178, 179, 180, 181, 182, 183, 184, 185, 186, 187, 188, 189, 190, 191, 192,
193, 194, 195, 196, 197, 198, 199, 200, 201, 202, 203, 204, 205, 206, 207, 208,
209, 210, 211, 212, 213, 214, 215, 216, 217, 218, 219, 220, 221, 222, 223, 224,
225, 226, 227, 228, 229, 230, 231, 232, 233, 234, 235, 236, 237, 238, 239, 240,
241, 242, 243, 244, 245, 246, 247, 248, 249, 250, 251, 252, 253, 254, 255, 256,
257, 258, 259, 260, 261, 262, 263, 264, 265, 266, 267, 268, 269, 270, 271, 272,
273, 274, 275, 276, 277, 278, 279, 280, 281, 282, 283, 284, 285, 286, 287, 288,
289, 290, 291, 292, 293, 294, 295, 296, 297, 298, 299, 300, 301, 302, 303, 304,
305, 306, 307, 308, 309, 310, 311, 312, 313, 314, 315, 316, 317, 318, 319, 320,
** ... 205 like lines cut
**
*Elset, elset=BIO_BIN_03
68211, 68212, 68213, 68214, 68215, 68216, 68217, 68218, 68219, 68220, 68221, 68222, 68223, 68224, 68225, 68226,
68227, 68228, 68229, 68230, 68231, 68232, 68233, 68234, 68235, 68236, 68237, 68238, 68239, 68240, 68241, 68242,
68243, 68244, 68245, 68246, 68247, 68248, 68249, 68250, 68251, 68252, 68253, 68254, 68255, 68256, 68257, 68258,
68259, 68260, 68261, 68262, 68263, 68264, 68265, 68266, 68267, 68268, 68269, 68270, 68271, 68272, 68273, 68274,
68275, 68276, 68277, 68278, 68279, 68280, 68281, 68282, 68283, 68284, 68285, 68286, 68287, 68288, 68289, 68290,
68291, 68292, 68293, 68294, 68295, 68296, 68297, 68298, 68299, 68300, 68301, 68302, 68303, 68304, 68305, 68306,
68307, 68308, 68309, 68310, 68311, 68312, 68313, 68314, 68315, 68316, 68317, 68318, 68319, 68320, 68321, 68322,
68323, 68324, 68325, 68326, 68327, 68328, 68329, 68330, 68331, 68332, 68333, 68334, 68335, 68336, 68337, 68338,
68339, 68340, 68341, 68342, 68343, 68344, 68345, 68346, 68347, 68348, 68349, 68350, 68351, 68352, 68353, 68354,
68355, 68356, 68357, 68358, 68359, 68360, 68361, 68362, 68363, 68364, 68365, 68366, 68367, 68368, 68369, 68370,
68371, 68372, 68373, 68374, 68375, 68376, 68377, 68378, 68379, 68380, 68381, 68382, 68383, 68384, 68385, 68386,
68387, 68388, 68389, 68390, 68391, 68392, 68393, 68394, 68395, 68396, 68397, 68398, 68399, 68400, 68401, 68402,
68403, 68404, 68405, 68406, 68407, 68408, 68409, 68410, 68411, 68412, 68413, 68414, 68415, 68416, 68417, 68418,
68419, 68420, 68421, 68422, 68423, 68424, 68425, 68426, 68427, 68428, 68429, 68430, 68431, 68432, 68433, 68434,
68435, 68436, 68437, 68438, 68439, 68440, 68441, 68442, 68443, 68444, 68445, 68446, 68447, 68448, 68449, 68450,
68451, 68452, 68453, 68454, 68455, 68456, 68457, 68458, 68459, 68460, 68461, 68462, 68463, 68464, 68465, 68466,
68467, 68468, 68469, 68470, 68471, 68472, 68473, 68474, 68475, 68476, 68477, 68478, 68479, 68480, 68481, 68482,
68483, 68484, 68485, 68486, 68487, 68488, 68489, 68490, 68491, 68492, 68493, 68494, 68495, 68496, 68497, 68498,
68499, 68500, 68501, 68502, 68503, 68504, 68505, 68506, 68507, 68508, 68509, 68510, 68511, 68512, 68513, 68514,
68515, 68516, 68517, 68518, 68519, 68520, 68521, 68522, 68523, 68524, 68525, 68526, 68527, 68528, 68529, 68530,
** ... 654 like lines cut
**
*Elset, elset=BIO_BIN_04
14361, 14362, 14363, 14364, 14365, 14366, 14367, 14368, 14369, 14370, 14371, 14372, 14373, 14374, 14375, 14376,
14377, 14378, 14379, 14380, 14381, 14382, 14383, 14384, 14385, 14386, 14387, 14388, 14389, 14390, 14391, 14392,
14393, 14394, 14395, 14396, 14397, 14398, 14399, 14400, 14401, 14402, 14403, 14404, 14405, 14406, 14407, 14408,
14409, 14410, 14411, 14412, 14413, 14414, 14415, 14416, 14417, 14418, 14419, 14420, 14421, 14422, 14423, 14424,
14425, 14426, 14427, 14428, 14429, 14430, 14431, 14432, 14433, 14434, 14435, 14436, 14437, 14438, 14439, 14440,
14441, 14442, 14443, 14444, 14445, 14446, 14447, 14448, 14449, 14450, 14451, 14452, 14453, 14454, 14455, 14456,
14457, 14458, 14459, 14460, 14461, 14462, 14463, 14464, 14465, 14466, 14467, 14468, 14469, 14470, 14471, 14472,
14473, 14474, 14475, 14476, 14477, 14478, 14479, 14480, 14481, 14482, 14483, 14484, 14485, 14486, 14487, 14488,
14489, 14490, 14491, 14492, 14493, 14494, 14495, 14496, 14497, 14498, 14499, 14500, 14501, 14502, 14503, 14504,
14505, 14506, 14507, 14508, 14509, 14510, 14511, 14512, 14513, 14514, 14515, 14516, 14517, 14518, 14519, 14520,
14521, 14522, 14523, 14524, 14525, 14526, 14527, 14528, 14529, 14530, 14531, 14532, 14533, 14534, 14535, 14536,
14537, 14538, 14539, 14540, 14541, 14542, 14543, 14544, 14545, 14546, 14547, 14548, 14549, 14550, 14551, 14552,
14553, 14554, 14555, 14556, 14557, 14558, 14559, 14560, 14561, 14562, 14563, 14564, 14565, 14566, 14567, 14568,
14569, 14570, 14571, 14572, 14573, 14574, 14575, 14576, 14577, 14578, 14579, 14580, 14581, 14582, 14583, 14584,
14585, 14586, 14587, 14588, 14589, 14590, 14591, 14592, 14593, 14594, 14595, 14596, 14597, 14598, 14599, 14600,
14601, 14602, 14603, 14604, 14605, 14606, 14607, 14608, 14609, 14610, 14611, 14612, 14613, 14614, 14615, 14616,
14617, 14618, 14619, 14620, 14621, 14622, 14623, 14624, 14625, 14626, 14627, 14628, 14629, 14630, 14631, 14632,
14633, 14634, 14635, 14636, 14637, 14638, 14639, 14640, 14641, 14642, 14643, 14644, 14645, 14646, 14647, 14648,
14649, 14650, 14651, 14652, 14653, 14654, 14655, 14656, 14657, 14658, 14659, 14660, 14661, 14662, 14663, 14664,
14665, 14666, 14667, 14668, 14669, 14670, 14671, 14672, 14673, 14674, 14675, 14676, 14677, 14678, 14679, 14680,
** ... 654 like lines cut
**
*Elset, elset=BIO_BIN_06
35901, 35902, 35903, 35904, 35905, 35906, 35907, 35908, 35909, 35910, 35911, 35912, 35913, 35914, 35915, 35916,
35917, 35918, 35919, 35920, 35921, 35922, 35923, 35924, 35925, 35926, 35927, 35928, 35929, 35930, 35931, 35932,
35933, 35934, 35935, 35936, 35937, 35938, 35939, 35940, 35941, 35942, 35943, 35944, 35945, 35946, 35947, 35948,
35949, 35950, 35951, 35952, 35953, 35954, 35955, 35956, 35957, 35958, 35959, 35960, 35961, 35962, 35963, 35964,
35965, 35966, 35967, 35968, 35969, 35970, 35971, 35972, 35973, 35974, 35975, 35976, 35977, 35978, 35979, 35980,
35981, 35982, 35983, 35984, 35985, 35986, 35987, 35988, 35989, 35990, 35991, 35992, 35993, 35994, 35995, 35996,
35997, 35998, 35999, 36000, 36001, 36002, 36003, 36004, 36005, 36006, 36007, 36008, 36009, 36010, 36011, 36012,
36013, 36014, 36015, 36016, 36017, 36018, 36019, 36020, 36021, 36022, 36023, 36024, 36025, 36026, 36027, 36028,
36029, 36030, 36031, 36032, 36033, 36034, 36035, 36036, 36037, 36038, 36039, 36040, 36041, 36042, 36043, 36044,
36045, 36046, 36047, 36048, 36049, 36050, 36051, 36052, 36053, 36054, 36055, 36056, 36057, 36058, 36059, 36060,
36061, 36062, 36063, 36064, 36065, 36066, 36067, 36068, 36069, 36070, 36071, 36072, 36073, 36074, 36075, 36076,
36077, 36078, 36079, 36080, 36081, 36082, 36083, 36084, 36085, 36086, 36087, 36088, 36089, 36090, 36091, 36092,
36093, 36094, 36095, 36096, 36097, 36098, 36099, 36100, 36101, 36102, 36103, 36104, 36105, 36106, 36107, 36108,
36109, 36110, 36111, 36112, 36113, 36114, 36115, 36116, 36117, 36118, 36119, 36120, 36121, 36122, 36123, 36124,
36125, 36126, 36127, 36128, 36129, 36130, 36131, 36132, 36133, 36134, 36135, 36136, 36137, 36138, 36139, 36140,
36141, 36142, 36143, 36144, 36145, 36146, 36147, 36148, 36149, 36150, 36151, 36152, 36153, 36154, 36155, 36156,
36157, 36158, 36159, 36160, 36161, 36162, 36163, 36164, 36165, 36166, 36167, 36168, 36169, 36170, 36171, 36172,
36173, 36174, 36175, 36176, 36177, 36178, 36179, 36180, 36181, 36182, 36183, 36184, 36185, 36186, 36187, 36188,
36189, 36190, 36191, 36192, 36193, 36194, 36195, 36196, 36197, 36198, 36199, 36200, 36201, 36202, 36203, 36204,
36205, 36206, 36207, 36208, 36209, 36210, 36211, 36212, 36213, 36214, 36215, 36216, 36217, 36218, 36219, 36220,
** ... 654 like lines cut
**
*Elset, elset=BIO_BIN_07
46671, 46672, 46673, 46674, 46675, 46676, 46677, 46678, 46679, 46680, 46681, 46682, 46683, 46684, 46685, 46686,
46687, 46688, 46689, 46690, 46691, 46692, 46693, 46694, 46695, 46696, 46697, 46698, 46699, 46700, 46701, 46702,
46703, 46704, 46705, 46706, 46707, 46708, 46709, 46710, 46711, 46712, 46713, 46714, 46715, 46716, 46717, 46718,
46719, 46720, 46721, 46722, 46723, 46724, 46725, 46726, 46727, 46728, 46729, 46730, 46731, 46732, 46733, 46734,
46735, 46736, 46737, 46738, 46739, 46740, 46741, 46742, 46743, 46744, 46745, 46746, 46747, 46748, 46749, 46750,
46751, 46752, 46753, 46754, 46755, 46756, 46757, 46758, 46759, 46760, 46761, 46762, 46763, 46764, 46765, 46766,
46767, 46768, 46769, 46770, 46771, 46772, 46773, 46774, 46775, 46776, 46777, 46778, 46779, 46780, 46781, 46782,
46783, 46784, 46785, 46786, 46787, 46788, 46789, 46790, 46791, 46792, 46793, 46794, 46795, 46796, 46797, 46798,
46799, 46800, 46801, 46802, 46803, 46804, 46805, 46806, 46807, 46808, 46809, 46810, 46811, 46812, 46813, 46814,
46815, 46816, 46817, 46818, 46819, 46820, 46821, 46822, 46823, 46824, 46825, 46826, 46827, 46828, 46829, 46830,
46831, 46832, 46833, 46834, 46835, 46836, 46837, 46838, 46839, 46840, 46841, 46842, 46843, 46844, 46845, 46846,
46847, 46848, 46849, 46850, 46851, 46852, 46853, 46854, 46855, 46856, 46857, 46858, 46859, 46860, 46861, 46862,
46863, 46864, 46865, 46866, 46867, 46868, 46869, 46870, 46871, 46872, 46873, 46874, 46875, 46876, 46877, 46878,
46879, 46880, 46881, 46882, 46883, 46884, 46885, 46886, 46887, 46888, 46889, 46890, 46891, 46892, 46893, 46894,
46895, 46896, 46897, 46898, 46899, 46900, 46901, 46902, 46903, 46904, 46905, 46906, 46907, 46908, 46909, 46910,
46911, 46912, 46913, 46914, 46915, 46916, 46917, 46918, 46919, 46920, 46921, 46922, 46923, 46924, 46925, 46926,
46927, 46928, 46929, 46930, 46931, 46932, 46933, 46934, 46935, 46936, 46937, 46938, 46939, 46940, 46941, 46942,
46943, 46944, 46945, 46946, 46947, 46948, 46949, 46950, 46951, 46952, 46953, 46954, 46955, 46956, 46957, 46958,
46959, 46960, 46961, 46962, 46963, 46964, 46965, 46966, 46967, 46968, 46969, 46970, 46971, 46972, 46973, 46974,
46975, 46976, 46977, 46978, 46979, 46980, 46981, 46982, 46983, 46984, 46985, 46986, 46987, 46988, 46989, 46990,
** ... 1327 like lines cut
**
*Elset, elset=BIO_BIN_08
25131, 25132, 25133, 25134, 25135, 25136, 25137, 25138, 25139, 25140, 25141, 25142, 25143, 25144, 25145, 25146,
25147, 25148, 25149, 25150, 25151, 25152, 25153, 25154, 25155, 25156, 25157, 25158, 25159, 25160, 25161, 25162,
25163, 25164, 25165, 25166, 25167, 25168, 25169, 25170, 25171, 25172, 25173, 25174, 25175, 25176, 25177, 25178,
25179, 25180, 25181, 25182, 25183, 25184, 25185, 25186, 25187, 25188, 25189, 25190, 25191, 25192, 25193, 25194,
25195, 25196, 25197, 25198, 25199, 25200, 25201, 25202, 25203, 25204, 25205, 25206, 25207, 25208, 25209, 25210,
25211, 25212, 25213, 25214, 25215, 25216, 25217, 25218, 25219, 25220, 25221, 25222, 25223, 25224, 25225, 25226,
25227, 25228, 25229, 25230, 25231, 25232, 25233, 25234, 25235, 25236, 25237, 25238, 25239, 25240, 25241, 25242,
25243, 25244, 25245, 25246, 25247, 25248, 25249, 25250, 25251, 25252, 25253, 25254, 25255, 25256, 25257, 25258,
25259, 25260, 25261, 25262, 25263, 25264, 25265, 25266, 25267, 25268, 25269, 25270, 25271, 25272, 25273, 25274,
25275, 25276, 25277, 25278, 25279, 25280, 25281, 25282, 25283, 25284, 25285, 25286, 25287, 25288, 25289, 25290,
25291, 25292, 25293, 25294, 25295, 25296, 25297, 25298, 25299, 25300, 25301, 25302, 25303, 25304, 25305, 25306,
25307, 25308, 25309, 25310, 25311, 25312, 25313, 25314, 25315, 25316, 25317, 25318, 25319, 25320, 25321, 25322,
25323, 25324, 25325, 25326, 25327, 25328, 25329, 25330, 25331, 25332, 25333, 25334, 25335, 25336, 25337, 25338,
25339, 25340, 25341, 25342, 25343, 25344, 25345, 25346, 25347, 25348, 25349, 25350, 25351, 25352, 25353, 25354,
25355, 25356, 25357, 25358, 25359, 25360, 25361, 25362, 25363, 25364, 25365, 25366, 25367, 25368, 25369, 25370,
25371, 25372, 25373, 25374, 25375, 25376, 25377, 25378, 25379, 25380, 25381, 25382, 25383, 25384, 25385, 25386,
25387, 25388, 25389, 25390, 25391, 25392, 25393, 25394, 25395, 25396, 25397, 25398, 25399, 25400, 25401, 25402,
25403, 25404, 25405, 25406, 25407, 25408, 25409, 25410, 25411, 25412, 25413, 25414, 25415, 25416, 25417, 25418,
25419, 25420, 25421, 25422, 25423, 25424, 25425, 25426, 25427, 25428, 25429, 25430, 25431, 25432, 25433, 25434,
25435, 25436, 25437, 25438, 25439, 25440, 25441, 25442, 25443, 25444, 25445, 25446, 25447, 25448, 25449, 25450,
** ... 654 like lines cut
**
*Elset, elset=BIO_BIN_10
78981, 78982, 78983, 78984, 78985, 78986, 78987, 78988, 78989, 78990, 78991, 78992, 78993, 78994, 78995, 78996,
78997, 78998, 78999, 79000, 79001, 79002, 79003, 79004, 79005, 79006, 79007, 79008, 79009, 79010, 79011, 79012,
79013, 79014, 79015, 79016, 79017, 79018, 79019, 79020, 79021, 79022, 79023, 79024, 79025, 79026, 79027, 79028,
79029, 79030, 79031, 79032, 79033, 79034, 79035, 79036, 79037, 79038, 79039, 79040, 79041, 79042, 79043, 79044,
79045, 79046, 79047, 79048, 79049, 79050, 79051, 79052, 79053, 79054, 79055, 79056, 79057, 79058, 79059, 79060,
79061, 79062, 79063, 79064, 79065, 79066, 79067, 79068, 79069, 79070, 79071, 79072, 79073, 79074, 79075, 79076,
79077, 79078, 79079, 79080, 79081, 79082, 79083, 79084, 79085, 79086, 79087, 79088, 79089, 79090, 79091, 79092,
79093, 79094, 79095, 79096, 79097, 79098, 79099, 79100, 79101, 79102, 79103, 79104, 79105, 79106, 79107, 79108,
79109, 79110, 79111, 79112, 79113, 79114, 79115, 79116, 79117, 79118, 79119, 79120, 79121, 79122, 79123, 79124,
79125, 79126, 79127, 79128, 79129, 79130, 79131, 79132, 79133, 79134, 79135, 79136, 79137, 79138, 79139, 79140,
79141, 79142, 79143, 79144, 79145, 79146, 79147, 79148, 79149, 79150, 79151, 79152, 79153, 79154, 79155, 79156,
79157, 79158, 79159, 79160, 79161, 79162, 79163, 79164, 79165, 79166, 79167, 79168, 79169, 79170, 79171, 79172,
79173, 79174, 79175, 79176, 79177, 79178, 79179, 79180, 79181, 79182, 79183, 79184, 79185, 79186, 79187, 79188,
79189, 79190, 79191, 79192, 79193, 79194, 79195, 79196, 79197, 79198, 79199, 79200, 79201, 79202, 79203, 79204,
79205, 79206, 79207, 79208, 79209, 79210, 79211, 79212, 79213, 79214, 79215, 79216, 79217, 79218, 79219, 79220,
79221, 79222, 79223, 79224, 79225, 79226, 79227, 79228, 79229, 79230, 79231, 79232, 79233, 79234, 79235, 79236,
79237, 79238, 79239, 79240, 79241, 79242, 79243, 79244, 79245, 79246, 79247, 79248, 79249, 79250, 79251, 79252,
79253, 79254, 79255, 79256, 79257, 79258, 79259, 79260, 79261, 79262, 79263, 79264, 79265, 79266, 79267, 79268,
79269, 79270, 79271, 79272, 79273, 79274, 79275, 79276, 79277, 79278, 79279, 79280, 79281, 79282, 79283, 79284,
79285, 79286, 79287, 79288, 79289, 79290, 79291, 79292, 79293, 79294, 79295, 79296, 79297, 79298, 79299, 79300,
** ... 654 like lines cut
**
*Elset, elset=BIO_BIN_11
3591, 3592, 3593, 3594, 3595, 3596, 3597, 3598, 3599, 3600, 3601, 3602, 3603, 3604, 3605, 3606,
3607, 3608, 3609, 3610, 3611, 3612, 3613, 3614, 3615, 3616, 3617, 3618, 3619, 3620, 3621, 3622,
3623, 3624, 3625, 3626, 3627, 3628, 3629, 3630, 3631, 3632, 3633, 3634, 3635, 3636, 3637, 3638,
3639, 3640, 3641, 3642, 3643, 3644, 3645, 3646, 3647, 3648, 3649, 3650, 3651, 3652, 3653, 3654,
3655, 3656, 3657, 3658, 3659, 3660, 3661, 3662, 3663, 3664, 3665, 3666, 3667, 3668, 3669, 3670,
3671, 3672, 3673, 3674, 3675, 3676, 3677, 3678, 3679, 3680, 3681, 3682, 3683, 3684, 3685, 3686,
3687, 3688, 3689, 3690, 3691, 3692, 3693, 3694, 3695, 3696, 3697, 3698, 3699, 3700, 3701, 3702,
3703, 3704, 3705, 3706, 3707, 3708, 3709, 3710, 3711, 3712, 3713, 3714, 3715, 3716, 3717, 3718,
3719, 3720, 3721, 3722, 3723, 3724, 3725, 3726, 3727, 3728, 3729, 3730, 3731, 3732, 3733, 3734,
3735, 3736, 3737, 3738, 3739, 3740, 3741, 3742, 3743, 3744, 3745, 3746, 3747, 3748, 3749, 3750,
3751, 3752, 3753, 3754, 3755, 3756, 3757, 3758, 3759, 3760, 3761, 3762, 3763, 3764, 3765, 3766,
3767, 3768, 3769, 3770, 3771, 3772, 3773, 3774, 3775, 3776, 3777, 3778, 3779, 3780, 3781, 3782,
3783, 3784, 3785, 3786, 3787, 3788, 3789, 3790, 3791, 3792, 3793, 3794, 3795, 3796, 3797, 3798,
3799, 3800, 3801, 3802, 3803, 3804, 3805, 3806, 3807, 3808, 3809, 3810, 3811, 3812, 3813, 3814,
3815, 3816, 3817, 3818, 3819, 3820, 3821, 3822, 3823, 3824, 3825, 3826, 3827, 3828, 3829, 3830,
3831, 3832, 3833, 3834, 3835, 3836, 3837, 3838, 3839, 3840, 3841, 3842, 3843, 3844, 3845, 3846,
3847, 3848, 3849, 3850, 3851, 3852, 3853, 3854, 3855, 3856, 3857, 3858, 3859, 3860, 3861, 3862,
3863, 3864, 3865, 3866, 3867, 3868, 3869, 3870, 3871, 3872, 3873, 3874, 3875, 3876, 3877, 3878,
3879, 3880, 3881, 3882, 3883, 3884, 3885, 3886, 3887, 3888, 3889, 3890, 3891, 3892, 3893, 3894,
3895, 3896, 3897, 3898, 3899, 3900, 3901, 3902, 3903, 3904, 3905, 3906, 3907, 3908, 3909, 3910,
** ... 654 like lines cut
**
*Elset, elset=BIO_ELEMS
3591, 3592, 3593, 3594, 3595, 3596, 3597, 3598, 3599, 3600, 3601, 3602, 3603, 3604, 3605, 3606,
3607, 3608, 3609, 3610, 3611, 3612, 3613, 3614, 3615, 3616, 3617, 3618, 3619, 3620, 3621, 3622,
3623, 3624, 3625, 3626, 3627, 3628, 3629, 3630, 3631, 3632, 3633, 3634, 3635, 3636, 3637, 3638,
3639, 3640, 3641, 3642, 3643, 3644, 3645, 3646, 3647, 3648, 3649, 3650, 3651, 3652, 3653, 3654,
3655, 3656, 3657, 3658, 3659, 3660, 3661, 3662, 3663, 3664, 3665, 3666, 3667, 3668, 3669, 3670,
3671, 3672, 3673, 3674, 3675, 3676, 3677, 3678, 3679, 3680, 3681, 3682, 3683, 3684, 3685, 3686,
3687, 3688, 3689, 3690, 3691, 3692, 3693, 3694, 3695, 3696, 3697, 3698, 3699, 3700, 3701, 3702,
3703, 3704, 3705, 3706, 3707, 3708, 3709, 3710, 3711, 3712, 3713, 3714, 3715, 3716, 3717, 3718,
3719, 3720, 3721, 3722, 3723, 3724, 3725, 3726, 3727, 3728, 3729, 3730, 3731, 3732, 3733, 3734,
3735, 3736, 3737, 3738, 3739, 3740, 3741, 3742, 3743, 3744, 3745, 3746, 3747, 3748, 3749, 3750,
3751, 3752, 3753, 3754, 3755, 3756, 3757, 3758, 3759, 3760, 3761, 3762, 3763, 3764, 3765, 3766,
3767, 3768, 3769, 3770, 3771, 3772, 3773, 3774, 3775, 3776, 3777, 3778, 3779, 3780, 3781, 3782,
3783, 3784, 3785, 3786, 3787, 3788, 3789, 3790, 3791, 3792, 3793, 3794, 3795, 3796, 3797, 3798,
3799, 3800, 3801, 3802, 3803, 3804, 3805, 3806, 3807, 3808, 3809, 3810, 3811, 3812, 3813, 3814,
3815, 3816, 3817, 3818, 3819, 3820, 3821, 3822, 3823, 3824, 3825, 3826, 3827, 3828, 3829, 3830,
3831, 3832, 3833, 3834, 3835, 3836, 3837, 3838, 3839, 3840, 3841, 3842, 3843, 3844, 3845, 3846,
3847, 3848, 3849, 3850, 3851, 3852, 3853, 3854, 3855, 3856, 3857, 3858, 3859, 3860, 3861, 3862,
3863, 3864, 3865, 3866, 3867, 3868, 3869, 3870, 3871, 3872, 3873, 3874, 3875, 3876, 3877, 3878,
3879, 3880, 3881, 3882, 3883, 3884, 3885, 3886, 3887, 3888, 3889, 3890, 3891, 3892, 3893, 3894,
3895, 3896, 3897, 3898, 3899, 3900, 3901, 3902, 3903, 3904, 3905, 3906, 3907, 3908, 3909, 3910,
** ... 5365 like lines cut
**
** ===== MATERIALS =====
*Material, name=MAT_DENTIN
*Elastic
 18600.0, 0.3100
**
*Material, name=MAT_BIO_03
*Elastic
 7786.5623, 0.3000
**
*Material, name=MAT_BIO_04
*Elastic
 7207.9529, 0.3000
**
*Material, name=MAT_BIO_06
*Elastic
 6122.4693, 0.3000
**
*Material, name=MAT_BIO_07
*Elastic
 5615.5950, 0.3000
**
*Material, name=MAT_BIO_08
*Elastic
 5132.6325, 0.3000
**
*Material, name=MAT_BIO_10
*Elastic
 4238.4426, 0.3000
**
*Material, name=MAT_BIO_11
*Elastic
 3827.2152, 0.3000
**
** ===== SECTIONS =====
*Shell Section, elset=TOOTH_ELEMS, material=MAT_DENTIN
 0.5000, 5
**
*Solid Section, elset=BIO_BIN_03, material=MAT_BIO_03
,
**
*Solid Section, elset=BIO_BIN_04, material=MAT_BIO_04
,
**
*Solid Section, elset=BIO_BIN_06, material=MAT_BIO_06
,
**
*Solid Section, elset=BIO_BIN_07, material=MAT_BIO_07
,
**
*Solid Section, elset=BIO_BIN_08, material=MAT_BIO_08
,
**
*Solid Section, elset=BIO_BIN_10, material=MAT_BIO_10
,
**
*Solid Section, elset=BIO_BIN_11, material=MAT_BIO_11
,
**
** ===== TIE CONSTRAINT (biofilm INNER → tooth shell) =====
** Biofilm inner nodes are at the same positions as tooth shell nodes.
** position tolerance should cover the near-zero gap between them.
*Surface, type=ELEMENT, name=TOOTH_SURF
 TOOTH_ELEMS, SPOS
**
*Surface, type=NODE, name=BIO_INNER_SURF
 BIO_INNER
**
*Tie, name=TOOTH_BIO_TIE, position tolerance=0.1, adjust=YES
 BIO_INNER_SURF, TOOTH_SURF
**
** ===== BOUNDARY CONDITIONS =====
** Tooth base (cervical region) fixed
*Boundary
 TOOTH_BASE, ENCASTRE
**
** ===== STEP =====
*Step, name=LOAD, nlgeom=NO
 Inward pressure 1 MPa on biofilm outer face
*Static
 0.1, 1.0, 1e-5, 1.0
**
** Pressure = 1e+06 Pa (= 1 MPa)
*Cload
 16174, 1, 0.033614067
 16174, 2, 0.25281274
 16174, 3, -0.022627205
 16175, 1, -0.041345516
 16175, 2, 0.27317363
 16175, 3, -0.012993755
 16176, 1, -0.045439057
 16176, 2, 0.2668243
 16176, 3, -0.0099533015
 16177, 1, -0.21911192
 16177, 2, -0.023331047
 16177, 3, 0.032055288
 16178, 1, -0.15636843
 16178, 2, -0.023737805
 16178, 3, 0.026963067
 16179, 1, -0.26206889
 16179, 2, -0.059955508
 16179, 3, 0.042086185
 16180, 1, -0.11241243
 16180, 2, -0.23797051
** ... 5371 like lines cut
**
*Output, field
*Node Output
 U, RF
*Element Output
 S, E, MISES
**
*End Step
