*Heading
 Aniso biofilm real geometry  beta=0.50  e1=[1.00,0.00,0.00]
** Job name: dh_crown_real_test Model name: BiofilmAniso3DReal
** Generated by: Abaqus/CAE 2024
*Preprint, echo=NO, model=NO, history=NO, contact=NO
**
** PARTS
**
*Part, name=Biofilm
*Node
      1, 0.0500000007,  0.400000006,          0.5
      2, 0.0500000007,  0.400000006,           1.
      3,  0.100000001,  0.583333313,           1.
      4,  0.099999994,  0.583333313,          0.5
      5, 0.0874999985,       0.3125,          0.5
      6, 0.0874999985,       0.3125,           1.
      7,  0.477785438,  0.490141839,           1.
      8,  0.473965466,  0.491405666,          0.5
      9,  0.200000003,  0.949999988,           1.
     10,  0.200000003,  0.949999988,          0.5
     11,         0.25,  0.958333313,           1.
     12,         0.25,  0.958333313,          0.5
     13,  0.200000003,  0.949999988,           0.
     14,  0.100000001,  0.583333313,           0.
     15,         0.25,  0.958333313,           0.
     16,  0.477741897,  0.491217315,           0.
     17, 0.0500000007,  0.400000006,           0.
     18, 0.0874999985,       0.3125,           0.
     19,  0.200000003, 0.0500000007,           1.
     20,  0.300000012, 0.0333333351,           1.
** ... 1300 like lines cut
*Element, type=C3D8R
  1,    5,   66,  397,   79,    1,   52,  391,   65
  2,   66,   67,  398,  397,   52,   53,  392,  391
  3,   67,   68,  399,  398,   53,   54,  393,  392
  4,   68,   69,  400,  399,   54,   55,  394,  393
  5,   69,   70,  401,  400,   55,   56,  395,  394
  6,   70,   71,  402,  401,   56,   57,  396,  395
  7,   71,    6,   72,  402,   57,    2,   58,  396
  8,   79,  397,   78,    8,   65,  391,   64,    4
  9,  397,  398,   77,   78,  391,  392,   63,   64
 10,  398,  399,   76,   77,  392,  393,   62,   63
 11,  399,  400,   75,   76,  393,  394,   61,   62
 12,  400,  401,   74,   75,  394,  395,   60,   61
 13,  401,  402,   73,   74,  395,  396,   59,   60
 14,  402,   72,    7,   73,  396,   58,    3,   59
 15,    7,   94,  421,   73,    3,   80,  403,   59
 16,   94,   93,  422,  421,   80,   81,  404,  403
 17,   93,   92,  423,  422,   81,   82,  405,  404
 18,   92,   11,  100,  423,   82,    9,   83,  405
 19,   73,  421,  424,   74,   59,  403,  406,   60
 20,  421,  422,  425,  424,  403,  404,  407,  406
** ... 876 like lines cut
*Elset, elset=_PickedSet4, internal
 295, 296, 654, 796, 839
*Elset, elset=_PickedSet5, internal
  88, 138, 146, 188, 189, 222, 248, 324, 329, 349, 351, 373, 502, 552, 556, 637
 662, 694, 776
*Elset, elset=_PickedSet6, internal
 105, 130, 134, 178, 212, 227, 229, 234, 247, 319, 335, 354, 377, 381, 422, 431
 561, 582, 596, 607, 617, 642, 678, 764, 784
*Elset, elset=_PickedSet7, internal
  42,  93,  99, 104, 117, 127, 131, 133, 140, 141, 144, 147, 148, 190, 200, 201
 216, 218, 220, 230, 231, 249, 271, 272, 284, 285, 298, 320, 321, 334, 357, 361
 362, 392, 412, 414, 417, 432, 451, 458, 471, 493, 547, 567, 587, 595, 612, 636
 641, 657, 689, 699, 703, 732, 736, 800, 808, 815, 836, 848, 860, 887, 890, 893
*Elset, elset=_PickedSet8, internal
   6,  17,  38,  44,  45,  47,  85,  90,  96, 102, 126, 175, 194, 198, 199, 232
 259, 260, 283, 325, 330, 345, 352, 355, 371, 374, 375, 378, 379, 383, 384, 386
 391, 394, 397, 410, 413, 426, 430, 437, 452, 473, 499, 505, 511, 523, 529, 532
 554, 572, 575, 592, 601, 634, 656, 684, 688, 693, 704, 743, 756, 804, 812, 818
 821, 866, 869, 872, 875, 896
*Elset, elset=_PickedSet9, internal
  13,  19,  26,  87, 137, 149, 166, 170, 174, 182, 186, 202, 206, 210, 223, 224
 225, 226, 235, 237, 264, 273, 297, 299, 300, 317, 322, 323, 344, 385, 390, 446
 453, 470, 478, 486, 501, 508, 517, 536, 537, 555, 562, 577, 594, 597, 616, 632
 653, 655, 667, 748, 767, 824, 827, 885, 886
*Elset, elset=_PickedSet10, internal
  14,  43,  49,  86, 111, 122, 135, 136, 139, 145, 150, 151, 152, 153, 158, 162
 164, 165, 187, 221, 276, 316, 318, 340, 353, 358, 363, 364, 366, 369, 376, 380
 393, 398, 411, 433, 434, 442, 450, 474, 498, 510, 514, 526, 534, 535, 542, 574
 576, 602, 661, 683, 698, 740, 755, 772, 788, 813, 814, 837, 838, 842, 845, 854
 857, 861, 862, 873, 874, 884
*Elset, elset=_PickedSet11, internal
  15,  22,  89,  95, 108, 142, 143, 154, 163, 176, 177, 215, 217, 219, 228, 252
 261, 367, 372, 382, 406, 462, 477, 495, 496, 507, 557, 593, 615, 633, 635, 647
 652, 673, 731, 744, 779, 791, 826, 830, 833, 849, 850, 878, 881
*Elset, elset=_PickedSet12, internal
  30,  34,  48, 110, 114, 213, 214, 233, 236, 356, 359, 370, 388, 418, 457, 466
 482, 490, 492, 533, 541, 573, 581, 613, 627, 674, 679, 760, 851
*Elset, elset=_PickedSet13, internal
   7,  18,  20,  46,  55,  56,  92,  94, 123, 132, 288, 339, 350, 360, 365, 402
 438, 472, 614, 621, 622, 752, 780, 803, 825
*Elset, elset=_PickedSet14, internal
  16,  98, 116, 120, 387, 504, 520, 553, 768, 863
*Elset, elset=_PickedSet15, internal
 128, 129, 240, 454, 672, 792
*Elset, elset=_PickedSet16, internal
  21, 368, 389
*Elset, elset=_PickedSet17, internal
  91, 211
*Elset, elset=_PickedSet18, internal
   1,   2,   3,   4,   5,   8,   9,  10,  11,  12,  23,  24,  25,  27,  28,  29
  31,  32,  33,  35,  36,  37,  39,  40,  41,  50,  51,  52,  53,  54,  57,  58
  59,  60,  61,  62,  63,  64,  65,  66,  67,  68,  69,  70,  71,  72,  73,  74
  75,  76,  77,  78,  79,  80,  81,  82,  83,  84,  97, 100, 101, 103, 106, 107
 109, 112, 113, 115, 118, 119, 121, 124, 125, 155, 156, 157, 159, 160, 161, 167
 168, 169, 171, 172, 173, 179, 180, 181, 183, 184, 185, 191, 192, 193, 195, 196
 197, 203, 204, 205, 207, 208, 209, 238, 239, 241, 242, 243, 244, 245, 246, 250
 251, 253, 254, 255, 256, 257, 258, 262, 263, 265, 266, 267, 268, 269, 270, 274
 275, 277, 278, 279, 280, 281, 282, 286, 287, 289, 290, 291, 292, 293, 294, 301
 302, 303, 304, 305, 306, 307, 308, 309, 310, 311, 312, 313, 314, 315, 326, 327
 328, 331, 332, 333, 336, 337, 338, 341, 342, 343, 346, 347, 348, 395, 396, 399
 400, 401, 403, 404, 405, 407, 408, 409, 415, 416, 419, 420, 421, 423, 424, 425
 427, 428, 429, 435, 436, 439, 440, 441, 443, 444, 445, 447, 448, 449, 455, 456
 459, 460, 461, 463, 464, 465, 467, 468, 469, 475, 476, 479, 480, 481, 483, 484
 485, 487, 488, 489, 491, 494, 497, 500, 503, 506, 509, 512, 513, 515, 516, 518
 519, 521, 522, 524, 525, 527, 528, 530, 531, 538, 539, 540, 543, 544, 545, 546
 548, 549, 550, 551, 558, 559, 560, 563, 564, 565, 566, 568, 569, 570, 571, 578
 579, 580, 583, 584, 585, 586, 588, 589, 590, 591, 598, 599, 600, 603, 604, 605
 606, 608, 609, 610, 611, 618, 619, 620, 623, 624, 625, 626, 628, 629, 630, 631
 638, 639, 640, 643, 644, 645, 646, 648, 649, 650, 651, 658, 659, 660, 663, 664
** ... 10 like lines cut
*Orientation, name=Ori-1
          1.,           0.,           0.,           0.,           0.,           1.
1, 0.
** Section: SEC_TOOTH
*Solid Section, elset=_PickedSet18, orientation=Ori-1, material=MAT_TOOTH
,
** Section: SEC_ANISO_06
*Solid Section, elset=_PickedSet8, orientation=Ori-1, material=MAT_ANISO_06
,
** Section: SEC_ANISO_11
*Solid Section, elset=_PickedSet13, orientation=Ori-1, material=MAT_ANISO_11
,
** Section: SEC_ANISO_07
*Solid Section, elset=_PickedSet9, orientation=Ori-1, material=MAT_ANISO_07
,
** Section: SEC_ANISO_08
*Solid Section, elset=_PickedSet10, orientation=Ori-1, material=MAT_ANISO_08
,
** Section: SEC_ANISO_09
*Solid Section, elset=_PickedSet11, orientation=Ori-1, material=MAT_ANISO_09
,
** Section: SEC_ANISO_12
*Solid Section, elset=_PickedSet14, orientation=Ori-1, material=MAT_ANISO_12
,
** Section: SEC_ANISO_14
*Solid Section, elset=_PickedSet16, orientation=Ori-1, material=MAT_ANISO_14
,
** Section: SEC_ANISO_10
*Solid Section, elset=_PickedSet12, orientation=Ori-1, material=MAT_ANISO_10
,
** Section: SEC_ANISO_05
*Solid Section, elset=_PickedSet7, orientation=Ori-1, material=MAT_ANISO_05
,
** Section: SEC_ANISO_03
*Solid Section, elset=_PickedSet5, orientation=Ori-1, material=MAT_ANISO_03
,
** Section: SEC_ANISO_15
*Solid Section, elset=_PickedSet17, orientation=Ori-1, material=MAT_ANISO_15
,
** Section: SEC_ANISO_04
*Solid Section, elset=_PickedSet6, orientation=Ori-1, material=MAT_ANISO_04
,
** Section: SEC_ANISO_13
*Solid Section, elset=_PickedSet15, orientation=Ori-1, material=MAT_ANISO_13
,
** Section: SEC_ANISO_02
*Solid Section, elset=_PickedSet4, orientation=Ori-1, material=MAT_ANISO_02
,
*End Part
**
**
** ASSEMBLY
**
*Assembly, name=Assembly
**
*Instance, name=BioInst, part=Biofilm
*End Instance
**
*Nset, nset=_PickedSet3, internal, instance=BioInst
  13,  14,  15,  16,  17,  18,  41,  42,  43,  44,  45,  46,  47,  48,  49,  50
  51, 110, 111, 112, 125, 126, 127, 134, 141, 288, 289, 296, 297, 304, 305, 306
 307, 308, 309, 310, 311, 312, 313, 314, 315, 328, 329, 330, 331, 344, 345, 346
 347, 360, 361, 362, 363, 364, 365, 366, 367, 380, 381, 382, 383, 384, 791, 792
 793, 794, 795, 796, 797, 798, 799, 800, 801, 802, 803, 804, 919, 920, 921, 922
 923, 924, 973, 974, 975, 976, 977, 978
*Elset, elset=_PickedSet3, internal, instance=BioInst
  49,  56,  63,  70,  71,  72, 491, 492, 493, 512, 513, 514, 533, 534, 535, 536
 537, 538, 539, 540, 541, 542, 543, 544, 545, 546, 547, 548, 549, 550, 551, 552
 673, 674, 675, 676, 677, 708, 709, 710, 729, 730, 731, 732, 733, 734, 735, 736
 737, 738, 739, 740, 813, 814, 815, 816, 817, 818, 819, 820, 821, 822, 823, 824
*Elset, elset=__PickedSurf4_S4, internal, instance=BioInst
  7, 14
*Elset, elset=__PickedSurf4_S3, internal, instance=BioInst, generate
 15,  18,   1
*Elset, elset=__PickedSurf4_S2, internal, instance=BioInst
  85,  86,  87,  88,  89,  90, 127, 128, 129, 130, 131, 132, 133, 134, 135, 136
 137, 138, 211, 212, 213, 214, 215, 216, 217, 218, 219, 220, 221, 222, 295, 296
 297, 316, 317, 318, 319, 320, 351, 352, 353, 354, 355, 356, 357, 358, 359, 360
 361, 362, 363, 364, 365, 366, 367, 368, 369, 370
*Surface, type=ELEMENT, name=_PickedSurf4, internal
__PickedSurf4_S4, S4
__PickedSurf4_S3, S3
__PickedSurf4_S2, S2
*End Assembly
**
** MATERIALS
**
*Material, name=MAT_ANISO_00
*Elastic, type=ENGINEERING CONSTANTS
 9.66586e+09, 4.83293e+09, 4.83293e+09,         0.3,         0.3,         0.3, 3.71764e+09, 3.71764e+09
 1.85882e+09,
*Material, name=MAT_ANISO_01
*Elastic, type=ENGINEERING CONSTANTS
 9.01552e+09, 4.50776e+09, 4.50776e+09,         0.3,         0.3,         0.3, 3.46751e+09, 3.46751e+09
 1.73375e+09,
*Material, name=MAT_ANISO_02
*Elastic, type=ENGINEERING CONSTANTS
 8.38908e+09, 4.19454e+09, 4.19454e+09,         0.3,         0.3,         0.3, 3.22657e+09, 3.22657e+09
 1.61329e+09,
*Material, name=MAT_ANISO_03
*Elastic, type=ENGINEERING CONSTANTS
 7.78656e+09, 3.89328e+09, 3.89328e+09,         0.3,         0.3,         0.3, 2.99483e+09, 2.99483e+09
 1.49742e+09,
*Material, name=MAT_ANISO_04
*Elastic, type=ENGINEERING CONSTANTS
 7.20795e+09, 3.60398e+09, 3.60398e+09,         0.3,         0.3,         0.3, 2.77229e+09, 2.77229e+09
 1.38614e+09,
*Material, name=MAT_ANISO_05
*Elastic, type=ENGINEERING CONSTANTS
 6.65326e+09, 3.32663e+09, 3.32663e+09,         0.3,         0.3,         0.3, 2.55894e+09, 2.55894e+09
 1.27947e+09,
*Material, name=MAT_ANISO_06
*Elastic, type=ENGINEERING CONSTANTS
 6.12247e+09, 3.06123e+09, 3.06123e+09,         0.3,         0.3,         0.3,  2.3548e+09,  2.3548e+09
  1.1774e+09,
*Material, name=MAT_ANISO_07
*Elastic, type=ENGINEERING CONSTANTS
 5.6156e+09,  2.8078e+09,  2.8078e+09,         0.3,         0.3,         0.3, 2.15984e+09, 2.15984e+09
 1.07992e+09,
*Material, name=MAT_ANISO_08
*Elastic, type=ENGINEERING CONSTANTS
 5.13263e+09, 2.56632e+09, 2.56632e+09,         0.3,         0.3,         0.3, 1.97409e+09, 1.97409e+09
 9.87045e+08,
*Material, name=MAT_ANISO_09
*Elastic, type=ENGINEERING CONSTANTS
 4.67358e+09, 2.33679e+09, 2.33679e+09,         0.3,         0.3,         0.3, 1.79753e+09, 1.79753e+09
 8.98766e+08,
*Material, name=MAT_ANISO_10
*Elastic, type=ENGINEERING CONSTANTS
 4.23844e+09, 2.11922e+09, 2.11922e+09,         0.3,         0.3,         0.3, 1.63017e+09, 1.63017e+09
 8.15085e+08,
*Material, name=MAT_ANISO_11
*Elastic, type=ENGINEERING CONSTANTS
 3.82722e+09, 1.91361e+09, 1.91361e+09,         0.3,         0.3,         0.3, 1.47201e+09, 1.47201e+09
 7.36003e+08,
*Material, name=MAT_ANISO_12
*Elastic, type=ENGINEERING CONSTANTS
 3.4399e+09, 1.71995e+09, 1.71995e+09,         0.3,         0.3,         0.3, 1.32304e+09, 1.32304e+09
 6.61519e+08,
*Material, name=MAT_ANISO_13
*Elastic, type=ENGINEERING CONSTANTS
 3.0765e+09, 1.53825e+09, 1.53825e+09,         0.3,         0.3,         0.3, 1.18327e+09, 1.18327e+09
 5.91634e+08,
*Material, name=MAT_ANISO_14
*Elastic, type=ENGINEERING CONSTANTS
 2.737e+09,  1.3685e+09,  1.3685e+09,         0.3,         0.3,         0.3, 1.05269e+09, 1.05269e+09
 5.26347e+08,
*Material, name=MAT_ANISO_15
*Elastic, type=ENGINEERING CONSTANTS
 2.42142e+09, 1.21071e+09, 1.21071e+09,         0.3,         0.3,         0.3, 9.31316e+08, 9.31316e+08
 4.65658e+08,
*Material, name=MAT_ANISO_16
*Elastic, type=ENGINEERING CONSTANTS
 2.12975e+09, 1.06488e+09, 1.06488e+09,         0.3,         0.3,         0.3, 8.19136e+08, 8.19136e+08
 4.09568e+08,
*Material, name=MAT_ANISO_17
*Elastic, type=ENGINEERING CONSTANTS
 1.862e+09, 9.30998e+08, 9.30998e+08,         0.3,         0.3,         0.3, 7.16153e+08, 7.16153e+08
 3.58076e+08,
*Material, name=MAT_ANISO_18
*Elastic, type=ENGINEERING CONSTANTS
 1.61815e+09, 8.09076e+08, 8.09076e+08,         0.3,         0.3,         0.3, 6.22366e+08, 6.22366e+08
 3.11183e+08,
*Material, name=MAT_ANISO_19
*Elastic, type=ENGINEERING CONSTANTS
 1.39822e+09, 6.99109e+08, 6.99109e+08,         0.3,         0.3,         0.3, 5.37776e+08, 5.37776e+08
 2.68888e+08,
*Material, name=MAT_TOOTH
*Elastic, type=ENGINEERING CONSTANTS
 1e+10,       1e+10,       1e+10,         0.3,         0.3,         0.3, 3.84615e+09, 3.84615e+09
 3.84615e+09,
**
** BOUNDARY CONDITIONS
**
** Name: FIX_BOT Type: Displacement/Rotation
*Boundary
_PickedSet3, 1, 1
_PickedSet3, 2, 2
_PickedSet3, 3, 3
** ----------------------------------------------------------------
**
** STEP: LOAD
**
*Step, name=LOAD, nlgeom=NO
*Static
0.1, 1., 1e-05, 1.
**
** LOADS
**
** Name: PRESS   Type: Pressure
*Dsload
_PickedSurf4, P, 1e+06
**
** OUTPUT REQUESTS
**
*Restart, write, frequency=0
**
** FIELD OUTPUT: F-Output-1
**
*Output, field, variable=PRESELECT
**
** HISTORY OUTPUT: H-Output-1
**
*Output, history, variable=PRESELECT
*End Step
