*Heading
 Aniso biofilm  beta=0.50  e1=[1.00,0.00,0.00]
** Job name: dh_crown_test Model name: BiofilmAniso3D
** Generated by: Abaqus/CAE 2024
*Preprint, echo=NO, model=NO, history=NO, contact=NO
**
** PARTS
**
*Part, name=Biofilm
*Node
      1,  0.979746461,   0.64086628,           0.
      2,  0.954815984,  0.707707524,           0.
      3,  0.877874792,  0.827430367,           0.
      4,  0.770320415,   0.92062676,           0.
      5,  0.707707524,  0.954815984,           0.
      6,  0.571157396,  0.994910717,           0.
      7,          0.5,           1.,           0.
      8,   0.35913372,  0.979746461,           0.
      9,  0.229679585,   0.92062676,           0.
     10,  0.172569633,  0.877874792,           0.
     11,  0.079373233,  0.770320415,           0.
     12,  0.020253513,   0.64086628,           0.
     13, 0.00508927926,  0.571157396,           0.
     14, 0.00508927926,  0.428842574,           0.
     15,  0.020253513,   0.35913372,           0.
     16,  0.079373233,  0.229679585,           0.
     17,  0.172569633,  0.122125216,           0.
     18,  0.229679585,  0.079373233,           0.
     19,   0.35913372,  0.020253513,           0.
     20,          0.5,           0.,           0.
** ... 3475 like lines cut
*Element, type=C3D8R
   1,  297,  274,  254,  314,   64,   41,   21,   81
   2,  296,  273,  252,  309,   63,   40,   19,   76
   3,  310,  255,  274,  297,   77,   22,   41,   64
   4,  295,  272,  251,  279,   62,   39,   18,   46
   5,  298,  275,  256,  278,   65,   42,   23,   45
   6,  279,  251,  250,  316,   46,   18,   17,   83
   7,  270,  293,  317,  249,   37,   60,   84,   16
   8,  299,  276,  257,  311,   66,   43,   24,   78
   9,  248,  313,  293,  270,   15,   80,   60,   37
  10,  246,  280,  322,  269,   13,   47,   89,   36
  11,  280,  246,  245,  315,   47,   13,   12,   82
  12,  267,  291,  312,  244,   34,   58,   79,   11
  13,  243,  242,  325,  319,   10,    9,   92,   86
  14,  290,  266,  241,  281,   57,   33,    8,   48
  15,  281,  241,  265,  289,   48,    8,   32,   56
  16,  281,  289,  301,  338,   48,   56,   68,  105
  17,  333,  294,  317,  435,  100,   61,   84,  202
  18,  237,  326,  320,  238,    4,   93,   87,    5
  19,  236,  282,  287,  263,    3,   49,   54,   30
  20,  318,  328,  427,  286,   85,   95,  194,   53
** ... 2920 like lines cut
*Elset, elset=_PickedSet4, internal
  536,  551, 2413
*Elset, elset=_PickedSet5, internal
  168,  191,  234,  255,  277,  316,  319,  347,  479,  494,  904,  952, 1165, 1584, 1626, 1630
 2490, 2493, 2754, 2797, 2836, 2839, 2849, 2851, 2935
*Elset, elset=_PickedSet6, internal
   25,   44,   66,   95,   96,  108,  118,  125,  141,  149,  154,  160,  165,  174,  208,  244
  254,  273,  278,  280,  283,  315,  409,  501,  558,  633,  678,  694,  723,  734,  741,  742
  760,  885,  924, 1011, 1022, 1035, 1082, 1083, 1119, 1139, 1173, 1183, 1208, 1220, 1247, 1274
 1300, 1306, 1308, 1356, 1401, 1492, 1513, 1554, 1619, 1651, 1802, 1909, 1919, 1936, 1954, 1971
 2002, 2017, 2027, 2047, 2052, 2119, 2129, 2146, 2164, 2181, 2212, 2227, 2237, 2257, 2262, 2343
 2424, 2466, 2552, 2567, 2570, 2582, 2592, 2636, 2651, 2666, 2690, 2748, 2752, 2773, 2774, 2827
 2837, 2862, 2900, 2922, 2937
*Elset, elset=_PickedSet7, internal
   18,   22,   28,   31,   34,   36,   43,   60,   61,   62,   63,   65,   79,  114,  116,  117
  131,  137,  145,  156,  184,  188,  204,  231,  240,  251,  256,  266,  318,  323,  343,  344
  346,  360,  362,  370,  380,  384,  389,  407,  412,  436,  473,  480,  485,  499,  516,  523
  524,  550,  555,  561,  563,  595,  649,  666,  677,  679,  680,  692,  698,  700,  702,  715
  716,  718,  735,  755,  767,  770,  772,  784,  789,  794,  829,  830,  848,  856,  873,  879
  881,  890,  893,  908,  910,  912,  945,  955, 1000, 1003, 1005, 1012, 1013, 1039, 1048, 1050
 1074, 1076, 1078, 1089, 1090, 1098, 1112, 1117, 1141, 1156, 1159, 1177, 1188, 1193, 1195, 1232
 1253, 1254, 1266, 1277, 1281, 1283, 1284, 1286, 1297, 1327, 1343, 1366, 1369, 1373, 1396, 1421
 1425, 1427, 1430, 1449, 1461, 1468, 1470, 1472, 1477, 1489, 1491, 1502, 1506, 1511, 1520, 1529
 1534, 1542, 1544, 1550, 1551, 1557, 1573, 1582, 1592, 1594, 1599, 1609, 1625, 1631, 1637, 1646
 1648, 1659, 1680, 1682, 1700, 1701, 1718, 1740, 1745, 1748, 1759, 1760, 1777, 1785, 1790, 1817
 1819, 1840, 1864, 1868, 1908, 1916, 1937, 1950, 1955, 1959, 1969, 1979, 2005, 2025, 2036, 2083
 2118, 2126, 2147, 2160, 2165, 2169, 2179, 2189, 2215, 2235, 2246, 2293, 2313, 2325, 2359, 2397
 2437, 2480, 2496, 2497, 2503, 2510, 2541, 2542, 2547, 2561, 2562, 2563, 2564, 2604, 2605, 2606
 2608, 2619, 2628, 2634, 2639, 2641, 2673, 2676, 2694, 2704, 2708, 2716, 2725, 2731, 2737, 2756
 2761, 2769, 2770, 2780, 2791, 2792, 2802, 2814, 2844, 2864, 2886, 2895, 2910, 2913, 2938
*Elset, elset=_PickedSet8, internal
    2,   32,   33,   49,   70,   80,   94,  104,  107,  127,  130,  132,  133,  139,  166,  169
  177,  180,  183,  192,  197,  199,  200,  206,  207,  259,  270,  274,  275,  289,  295,  296
  298,  302,  322,  336,  338,  367,  372,  373,  381,  382,  390,  392,  393,  397,  400,  402
  404,  405,  410,  417,  423,  428,  441,  444,  447,  450,  452,  456,  460,  461,  465,  467
  469,  472,  487,  489,  503,  505,  506,  509,  511,  512,  526,  529,  534,  535,  560,  573
  576,  579,  601,  604,  606,  608,  614,  616,  618,  620,  645,  648,  660,  662,  688,  689
  704,  713,  714,  720,  738,  744,  745,  752,  756,  757,  758,  786,  796,  799,  800,  803
  804,  808,  820,  847,  859,  860,  862,  865,  872,  883,  902,  906,  911,  923,  935,  940
  941,  943,  944,  950,  958,  966,  968,  970,  978,  990,  991, 1001, 1007, 1026, 1029, 1049
 1053, 1091, 1094, 1100, 1109, 1110, 1115, 1122, 1124, 1125, 1129, 1134, 1147, 1161, 1163, 1184
 1186, 1192, 1194, 1196, 1210, 1215, 1216, 1218, 1219, 1234, 1238, 1241, 1248, 1258, 1262, 1279
 1294, 1298, 1299, 1310, 1315, 1322, 1323, 1331, 1332, 1340, 1367, 1375, 1382, 1383, 1385, 1392
 1395, 1399, 1402, 1406, 1408, 1410, 1411, 1412, 1414, 1418, 1426, 1429, 1433, 1440, 1443, 1458
 1482, 1486, 1488, 1494, 1495, 1523, 1524, 1537, 1541, 1570, 1576, 1579, 1588, 1605, 1621, 1643
 1673, 1681, 1698, 1699, 1722, 1725, 1726, 1727, 1737, 1770, 1780, 1784, 1787, 1788, 1806, 1808
 1810, 1812, 1818, 1829, 1837, 1842, 1854, 1865, 1898, 1907, 1924, 1935, 1939, 1944, 1953, 1975
 1976, 1990, 1993, 1997, 2003, 2006, 2013, 2021, 2022, 2026, 2042, 2048, 2053, 2055, 2062, 2069
 2077, 2080, 2090, 2091, 2098, 2108, 2117, 2134, 2145, 2149, 2154, 2163, 2185, 2186, 2200, 2203
 2207, 2213, 2216, 2223, 2231, 2232, 2236, 2252, 2258, 2263, 2265, 2272, 2279, 2287, 2290, 2300
 2301, 2308, 2327, 2330, 2335, 2337, 2339, 2344, 2349, 2356, 2367, 2373, 2378, 2379, 2381, 2383
** ... 5 like lines cut
*Elset, elset=_PickedSet9, internal
    9,   17,   19,   21,   41,   51,   55,   69,   83,   85,   86,   89,   90,  126,  128,  129
  140,  148,  150,  155,  157,  159,  162,  186,  201,  215,  224,  228,  235,  237,  238,  239
  248,  306,  307,  312,  317,  321,  324,  325,  328,  335,  342,  348,  351,  357,  359,  363
  364,  366,  375,  376,  379,  383,  385,  394,  398,  406,  418,  426,  435,  438,  442,  443
  445,  448,  451,  463,  468,  481,  484,  491,  504,  510,  513,  532,  533,  538,  539,  541
  542,  553,  556,  557,  571,  572,  588,  611,  612,  617,  625,  627,  634,  638,  655,  658
  664,  675,  693,  699,  701,  705,  711,  719,  733,  740,  748,  774,  775,  776,  779,  781
  790,  798,  801,  809,  810,  811,  813,  821,  825,  833,  834,  842,  858,  869,  875,  899
  900,  905,  913,  914,  919,  920,  927,  931,  933,  939,  948,  957,  964,  975,  979,  982
  983,  986,  992, 1014, 1016, 1021, 1030, 1032, 1033, 1043, 1047, 1054, 1058, 1064, 1071, 1075
 1077, 1095, 1101, 1108, 1135, 1136, 1143, 1152, 1153, 1157, 1160, 1167, 1168, 1172, 1176, 1178
 1179, 1182, 1197, 1203, 1205, 1227, 1229, 1237, 1246, 1264, 1268, 1276, 1280, 1282, 1287, 1290
 1293, 1303, 1305, 1307, 1313, 1330, 1333, 1344, 1353, 1357, 1363, 1377, 1393, 1397, 1400, 1413
 1419, 1428, 1431, 1437, 1439, 1446, 1447, 1451, 1453, 1455, 1456, 1457, 1459, 1471, 1473, 1497
 1503, 1510, 1518, 1558, 1569, 1574, 1580, 1596, 1598, 1600, 1603, 1623, 1627, 1632, 1635, 1636
 1639, 1649, 1660, 1666, 1667, 1678, 1683, 1685, 1705, 1706, 1711, 1713, 1714, 1729, 1730, 1741
 1743, 1746, 1750, 1752, 1755, 1762, 1774, 1775, 1782, 1797, 1798, 1803, 1815, 1824, 1826, 1827
 1838, 1841, 1846, 1847, 1849, 1851, 1858, 1866, 1869, 1875, 1879, 1880, 1883, 1886, 1890, 1893
 1900, 1906, 1911, 1914, 1920, 1921, 1923, 1938, 1942, 1943, 1951, 1956, 1957, 1960, 1963, 1968
 1978, 1980, 1984, 1985, 1988, 1994, 1996, 1998, 1999, 2004, 2009, 2011, 2014, 2020, 2023, 2028
** ... 10 like lines cut
*Elset, elset=_PickedSet10, internal
   15,   24,   26,   27,   30,   39,   67,   88,   91,   93,  106,  109,  110,  111,  122,  138
  153,  171,  173,  182,  187,  195,  196,  214,  223,  225,  226,  229,  241,  243,  246,  250
  260,  263,  265,  271,  276,  279,  282,  286,  299,  303,  305,  314,  326,  329,  331,  340
  341,  345,  353,  358,  374,  391,  415,  432,  434,  439,  454,  457,  459,  462,  466,  471
  477,  483,  490,  493,  495,  527,  530,  537,  543,  544,  552,  564,  565,  578,  596,  605
  619,  624,  635,  644,  650,  661,  663,  669,  671,  687,  690,  691,  695,  696,  709,  725
  729,  731,  743,  753,  764,  766,  768,  788,  791,  795,  797,  805,  807,  812,  817,  819
  822,  837,  838,  839,  840,  841,  843,  849,  852,  857,  863,  870,  874,  882,  888,  903
  909,  929,  930,  953,  965,  969,  976,  977,  980,  994,  995,  999, 1010, 1015, 1019, 1020
 1023, 1027, 1038, 1041, 1056, 1063, 1069, 1081, 1084, 1087, 1092, 1096, 1097, 1111, 1113, 1116
 1123, 1126, 1133, 1137, 1138, 1140, 1145, 1146, 1154, 1158, 1164, 1180, 1187, 1191, 1206, 1224
 1230, 1233, 1236, 1242, 1257, 1261, 1263, 1275, 1301, 1319, 1326, 1329, 1334, 1335, 1348, 1349
 1355, 1370, 1376, 1389, 1391, 1403, 1404, 1409, 1415, 1435, 1438, 1444, 1448, 1452, 1467, 1476
 1484, 1498, 1499, 1514, 1521, 1530, 1535, 1538, 1540, 1549, 1553, 1561, 1575, 1583, 1585, 1587
 1589, 1590, 1591, 1597, 1606, 1607, 1613, 1615, 1634, 1638, 1641, 1650, 1653, 1654, 1656, 1657
 1658, 1661, 1665, 1669, 1674, 1675, 1684, 1688, 1692, 1707, 1715, 1720, 1721, 1739, 1749, 1751
 1754, 1763, 1764, 1765, 1766, 1767, 1769, 1776, 1783, 1794, 1821, 1823, 1831, 1833, 1836, 1845
 1853, 1859, 1860, 1863, 1870, 1872, 1876, 1887, 1888, 1891, 1895, 1904, 1905, 1913, 1926, 1934
 1941, 1961, 1967, 1977, 1981, 1986, 2016, 2018, 2024, 2030, 2031, 2040, 2041, 2049, 2056, 2059
 2088, 2100, 2101, 2105, 2114, 2115, 2123, 2136, 2144, 2151, 2171, 2177, 2187, 2191, 2196, 2226
** ... 7 like lines cut
*Elset, elset=_PickedSet11, internal
    1,    3,    6,   12,   14,   38,   42,   46,   47,   48,   50,   54,   58,   59,   64,   68
   72,   73,   74,   81,  105,  112,  113,  119,  121,  124,  135,  136,  142,  175,  176,  205
  216,  218,  222,  227,  232,  236,  249,  253,  261,  267,  281,  291,  293,  301,  311,  327
  330,  332,  334,  337,  350,  355,  356,  361,  369,  386,  387,  388,  395,  411,  413,  414
  419,  420,  421,  422,  425,  429,  430,  437,  440,  449,  464,  470,  476,  482,  492,  498
  500,  517,  518,  519,  520,  521,  528,  549,  559,  562,  566,  569,  570,  575,  584,  586
  589,  591,  593,  594,  597,  598,  599,  607,  615,  621,  622,  629,  632,  637,  651,  653
  667,  668,  670,  681,  703,  710,  717,  737,  746,  750,  759,  761,  762,  769,  773,  782
  785,  844,  846,  855,  866,  867,  871,  887,  891,  898,  901,  936,  947,  954,  967,  972
  981,  985,  989,  993,  996,  997, 1002, 1004, 1008, 1018, 1024, 1028, 1031, 1036, 1044, 1051
 1065, 1066, 1067, 1070, 1080, 1085, 1103, 1104, 1105, 1106, 1114, 1131, 1142, 1149, 1150, 1162
 1166, 1175, 1181, 1198, 1200, 1202, 1204, 1214, 1223, 1225, 1243, 1244, 1251, 1252, 1272, 1273
 1295, 1296, 1309, 1314, 1317, 1320, 1324, 1325, 1336, 1339, 1342, 1345, 1346, 1352, 1368, 1372
 1374, 1384, 1387, 1394, 1416, 1417, 1422, 1424, 1434, 1436, 1454, 1460, 1463, 1475, 1483, 1501
 1504, 1509, 1516, 1531, 1533, 1539, 1543, 1546, 1559, 1566, 1567, 1571, 1577, 1581, 1586, 1593
 1595, 1601, 1602, 1611, 1624, 1628, 1633, 1642, 1645, 1668, 1679, 1693, 1695, 1702, 1708, 1712
 1716, 1723, 1724, 1728, 1738, 1744, 1756, 1768, 1773, 1792, 1793, 1795, 1805, 1813, 1816, 1820
 1822, 1830, 1832, 1834, 1839, 1877, 1901, 1902, 1910, 1912, 1927, 1928, 1929, 1930, 1933, 1948
 1952, 1972, 2000, 2007, 2015, 2035, 2044, 2050, 2051, 2057, 2060, 2061, 2068, 2075, 2079, 2082
 2085, 2094, 2097, 2111, 2112, 2120, 2122, 2137, 2138, 2139, 2140, 2143, 2158, 2162, 2182, 2210
** ... 7 like lines cut
*Elset, elset=_PickedSet12, internal
    4,    5,   16,   20,   37,   40,   53,   56,   71,   87,   92,  103,  123,  146,  151,  158
  164,  194,  202,  203,  210,  211,  212,  217,  230,  233,  245,  262,  290,  294,  304,  310
  320,  349,  378,  401,  408,  416,  446,  453,  455,  474,  475,  486,  488,  515,  525,  545
  547,  568,  574,  577,  580,  582,  600,  603,  613,  631,  640,  647,  652,  659,  665,  672
  673,  676,  684,  685,  708,  721,  728,  754,  778,  780,  806,  814,  816,  818,  823,  831
  845,  853,  864,  878,  884,  892,  894,  895,  907,  916,  921,  925,  926,  928,  932,  934
  946,  949,  956,  960,  963,  971,  988,  998, 1034, 1046, 1052, 1055, 1057, 1068, 1086, 1099
 1102, 1107, 1120, 1121, 1130, 1132, 1174, 1185, 1189, 1201, 1207, 1211, 1212, 1217, 1221, 1226
 1239, 1245, 1249, 1250, 1288, 1292, 1302, 1312, 1318, 1328, 1341, 1354, 1359, 1361, 1364, 1365
 1371, 1386, 1388, 1390, 1405, 1442, 1464, 1466, 1469, 1478, 1479, 1485, 1487, 1490, 1496, 1500
 1508, 1528, 1536, 1547, 1555, 1556, 1560, 1565, 1572, 1578, 1604, 1617, 1622, 1644, 1671, 1686
 1703, 1704, 1709, 1731, 1734, 1735, 1747, 1757, 1779, 1786, 1789, 1799, 1801, 1807, 1825, 1828
 1844, 1861, 1884, 1885, 1892, 1903, 1918, 1925, 1931, 1949, 1964, 1966, 1970, 1982, 1991, 1992
 2001, 2029, 2037, 2039, 2065, 2071, 2076, 2084, 2099, 2102, 2113, 2128, 2135, 2141, 2159, 2174
 2176, 2180, 2192, 2201, 2202, 2211, 2239, 2247, 2249, 2275, 2281, 2286, 2294, 2309, 2314, 2315
 2322, 2331, 2340, 2345, 2347, 2352, 2370, 2375, 2376, 2389, 2401, 2402, 2405, 2410, 2414, 2439
 2440, 2459, 2465, 2475, 2478, 2487, 2494, 2498, 2501, 2504, 2518, 2534, 2571, 2579, 2589, 2594
 2597, 2609, 2622, 2667, 2683, 2692, 2705, 2707, 2735, 2745, 2751, 2757, 2776, 2779, 2788, 2798
 2822, 2823, 2826, 2835, 2846, 2852, 2861, 2871, 2880, 2883, 2887, 2892, 2894, 2898, 2909, 2920
 2921, 2924, 2926, 2930
*Elset, elset=_PickedSet13, internal
    7,    8,   10,   11,   13,   35,   45,   57,   75,   76,   78,   82,   84,   98,  101,  102
  134,  144,  147,  161,  163,  167,  172,  178,  179,  181,  189,  198,  209,  220,  257,  258
  264,  288,  300,  308,  309,  339,  352,  365,  403,  427,  431,  433,  478,  496,  502,  540
  554,  585,  590,  602,  610,  623,  628,  630,  636,  639,  646,  674,  683,  712,  724,  726
  727,  732,  747,  763,  765,  771,  777,  787,  792,  827,  828,  836,  850,  861,  868,  877
  880,  886,  889,  896,  915,  918,  922,  938,  951,  959,  961,  984, 1006, 1009, 1017, 1025
 1040, 1042, 1045, 1059, 1060, 1062, 1072, 1093, 1128, 1148, 1169, 1171, 1235, 1255, 1267, 1270
 1285, 1289, 1291, 1311, 1321, 1337, 1338, 1347, 1350, 1358, 1362, 1378, 1379, 1380, 1381, 1398
 1407, 1423, 1432, 1441, 1465, 1493, 1512, 1515, 1517, 1526, 1532, 1552, 1564, 1612, 1640, 1647
 1655, 1672, 1676, 1687, 1690, 1694, 1710, 1732, 1742, 1753, 1758, 1761, 1778, 1781, 1804, 1814
 1843, 1852, 1856, 1862, 1878, 1889, 1894, 1940, 1945, 1946, 1947, 1962, 2012, 2033, 2038, 2058
 2067, 2072, 2081, 2092, 2093, 2104, 2150, 2155, 2156, 2157, 2172, 2222, 2243, 2248, 2268, 2277
 2282, 2291, 2302, 2303, 2333, 2338, 2360, 2368, 2382, 2421, 2434, 2476, 2479, 2486, 2495, 2527
 2530, 2543, 2549, 2553, 2554, 2556, 2580, 2583, 2585, 2598, 2599, 2617, 2618, 2620, 2723, 2765
 2767, 2787, 2799, 2812, 2819, 2853, 2888, 2901, 2925
*Elset, elset=_PickedSet14, internal
   23,   77,   99,  100,  120,  143,  170,  190,  193,  213,  242,  285,  333,  354,  368,  507
  508,  546,  548,  581,  587,  609,  643,  656,  657,  682,  686,  706,  707,  722,  783,  793
  802,  824,  826,  832,  854,  962,  974, 1061, 1118, 1144, 1151, 1155, 1170, 1213, 1222, 1231
 1240, 1256, 1259, 1260, 1265, 1271, 1316, 1351, 1360, 1420, 1462, 1474, 1481, 1507, 1519, 1525
 1527, 1562, 1563, 1608, 1610, 1616, 1618, 1629, 1652, 1663, 1664, 1670, 1689, 1696, 1719, 1733
 1771, 1772, 1848, 1850, 1871, 1873, 1874, 1897, 1915, 1917, 1932, 1965, 1974, 2008, 2010, 2019
 2034, 2043, 2045, 2054, 2086, 2107, 2125, 2127, 2142, 2175, 2184, 2218, 2220, 2229, 2244, 2253
 2255, 2264, 2296, 2317, 2320, 2321, 2348, 2365, 2388, 2391, 2408, 2417, 2420, 2429, 2431, 2442
 2458, 2515, 2535, 2545, 2558, 2614, 2616, 2638, 2661, 2662, 2712, 2726, 2727, 2740, 2768, 2784
 2785, 2808, 2828, 2850, 2878, 2912
*Elset, elset=_PickedSet15, internal
   29,  115,  152,  219,  287,  292,  313,  371,  377,  399,  424,  522,  567,  641,  642,  654
  697,  730,  736,  739,  876,  942,  987, 1073, 1088, 1127, 1450, 1480, 1505, 1548, 1568, 1691
 1736, 1791, 1867, 1882, 1899, 1983, 1987, 1989, 2109, 2193, 2197, 2199, 2369, 2384, 2412, 2435
 2457, 2464, 2488, 2532, 2555, 2557, 2577, 2584, 2586, 2615, 2632, 2766, 2777, 2824, 2830, 2847
 2907, 2917, 2936
*Elset, elset=_PickedSet16, internal
   97,  221,  252,  269,  284,  531,  583,  592,  749,  751,  835,  851,  897,  917,  973, 1037
 1199, 1228, 1269, 1278, 1304, 1445, 1522, 1545, 1614, 1697, 1800, 1809, 1835, 1855, 1857, 1881
 1896, 1973, 2106, 2183, 2362, 2398, 2425, 2432, 2525, 2742, 2781, 2829
*Elset, elset=_PickedSet17, internal
   52,  272,  297,  396,  458,  497,  815, 1662, 1677, 1796, 1811, 1922, 1958, 1995, 2132, 2168
 2205, 2407, 2529, 2537, 2699, 2721, 2807
*Elset, elset=_PickedSet18, internal
  247,  268,  514,  626,  937, 2346, 2455, 2514, 2572, 2588, 2625, 2627, 2652, 2733, 2840
*Elset, elset=_PickedSet19, internal
 1079, 1190, 1209, 2739
*Elset, elset=_PickedSet20, internal
 1620, 2531
*Elset, elset=_PickedSet21, internal
  185, 1717
*Orientation, name=Ori-1
          1.,           0.,           0.,           0.,           0.,           1.
1, 0.
** Section: SEC_ANISO_08
*Solid Section, elset=_PickedSet11, orientation=Ori-1, material=MAT_ANISO_08
,
** Section: SEC_ANISO_05
*Solid Section, elset=_PickedSet8, orientation=Ori-1, material=MAT_ANISO_05
,
** Section: SEC_ANISO_09
*Solid Section, elset=_PickedSet12, orientation=Ori-1, material=MAT_ANISO_09
,
** Section: SEC_ANISO_10
*Solid Section, elset=_PickedSet13, orientation=Ori-1, material=MAT_ANISO_10
,
** Section: SEC_ANISO_06
*Solid Section, elset=_PickedSet9, orientation=Ori-1, material=MAT_ANISO_06
,
** Section: SEC_ANISO_07
*Solid Section, elset=_PickedSet10, orientation=Ori-1, material=MAT_ANISO_07
,
** Section: SEC_ANISO_04
*Solid Section, elset=_PickedSet7, orientation=Ori-1, material=MAT_ANISO_04
,
** Section: SEC_ANISO_11
*Solid Section, elset=_PickedSet14, orientation=Ori-1, material=MAT_ANISO_11
,
** Section: SEC_ANISO_03
*Solid Section, elset=_PickedSet6, orientation=Ori-1, material=MAT_ANISO_03
,
** Section: SEC_ANISO_12
*Solid Section, elset=_PickedSet15, orientation=Ori-1, material=MAT_ANISO_12
,
** Section: SEC_ANISO_14
*Solid Section, elset=_PickedSet17, orientation=Ori-1, material=MAT_ANISO_14
,
** Section: SEC_ANISO_13
*Solid Section, elset=_PickedSet16, orientation=Ori-1, material=MAT_ANISO_13
,
** Section: SEC_ANISO_02
*Solid Section, elset=_PickedSet5, orientation=Ori-1, material=MAT_ANISO_02
,
** Section: SEC_ANISO_18
*Solid Section, elset=_PickedSet21, orientation=Ori-1, material=MAT_ANISO_18
,
** Section: SEC_ANISO_15
*Solid Section, elset=_PickedSet18, orientation=Ori-1, material=MAT_ANISO_15
,
** Section: SEC_ANISO_01
*Solid Section, elset=_PickedSet4, orientation=Ori-1, material=MAT_ANISO_01
,
** Section: SEC_ANISO_16
*Solid Section, elset=_PickedSet19, orientation=Ori-1, material=MAT_ANISO_16
,
** Section: SEC_ANISO_17
*Solid Section, elset=_PickedSet20, orientation=Ori-1, material=MAT_ANISO_17
,
*End Part
**  
**
** ASSEMBLY
**
*Assembly, name=Assembly
**  
*Instance, name=BioInst, part=Biofilm
*End Instance
**  
*Nset, nset=_PickedSet3, internal, instance=BioInst, generate
   1,  233,    1
*Elset, elset=_PickedSet3, internal, instance=BioInst, generate
   1,  210,    1
*Elset, elset=__PickedSurf4_S1, internal, instance=BioInst, generate
 2731,  2940,     1
*Surface, type=ELEMENT, name=_PickedSurf4, internal
__PickedSurf4_S1, S1
*End Assembly
** 
** MATERIALS
** 
*Material, name=MAT_ANISO_00
*Elastic, type=ENGINEERING CONSTANTS
 9.60162e+09, 4.80081e+09, 4.80081e+09,         0.3,         0.3,         0.3, 3.69293e+09, 3.69293e+09
 1.84647e+09,
*Material, name=MAT_ANISO_01
*Elastic, type=ENGINEERING CONSTANTS
 8.83045e+09, 4.41523e+09, 4.41523e+09,         0.3,         0.3,         0.3, 3.39633e+09, 3.39633e+09
 1.69816e+09,
*Material, name=MAT_ANISO_02
*Elastic, type=ENGINEERING CONSTANTS
 8.09339e+09, 4.04669e+09, 4.04669e+09,         0.3,         0.3,         0.3, 3.11284e+09, 3.11284e+09
 1.55642e+09,
*Material, name=MAT_ANISO_03
*Elastic, type=ENGINEERING CONSTANTS
 7.39043e+09, 3.69521e+09, 3.69521e+09,         0.3,         0.3,         0.3, 2.84247e+09, 2.84247e+09
 1.42124e+09,
*Material, name=MAT_ANISO_04
*Elastic, type=ENGINEERING CONSTANTS
 6.72158e+09, 3.36079e+09, 3.36079e+09,         0.3,         0.3,         0.3, 2.58522e+09, 2.58522e+09
 1.29261e+09,
*Material, name=MAT_ANISO_05
*Elastic, type=ENGINEERING CONSTANTS
 6.08684e+09, 3.04342e+09, 3.04342e+09,         0.3,         0.3,         0.3, 2.34109e+09, 2.34109e+09
 1.17055e+09,
*Material, name=MAT_ANISO_06
*Elastic, type=ENGINEERING CONSTANTS
 5.48621e+09,  2.7431e+09,  2.7431e+09,         0.3,         0.3,         0.3, 2.11008e+09, 2.11008e+09
 1.05504e+09,
*Material, name=MAT_ANISO_07
*Elastic, type=ENGINEERING CONSTANTS
 4.91968e+09, 2.45984e+09, 2.45984e+09,         0.3,         0.3,         0.3, 1.89218e+09, 1.89218e+09
 9.46092e+08,
*Material, name=MAT_ANISO_08
*Elastic, type=ENGINEERING CONSTANTS
 4.38726e+09, 2.19363e+09, 2.19363e+09,         0.3,         0.3,         0.3, 1.68741e+09, 1.68741e+09
 8.43704e+08,
*Material, name=MAT_ANISO_09
*Elastic, type=ENGINEERING CONSTANTS
 3.88895e+09, 1.94448e+09, 1.94448e+09,         0.3,         0.3,         0.3, 1.49575e+09, 1.49575e+09
 7.47876e+08,
*Material, name=MAT_ANISO_10
*Elastic, type=ENGINEERING CONSTANTS
 3.42475e+09, 1.71238e+09, 1.71238e+09,         0.3,         0.3,         0.3, 1.31721e+09, 1.31721e+09
 6.58606e+08,
*Material, name=MAT_ANISO_11
*Elastic, type=ENGINEERING CONSTANTS
 2.99466e+09, 1.49733e+09, 1.49733e+09,         0.3,         0.3,         0.3, 1.15179e+09, 1.15179e+09
 5.75896e+08,
*Material, name=MAT_ANISO_12
*Elastic, type=ENGINEERING CONSTANTS
 2.59867e+09, 1.29934e+09, 1.29934e+09,         0.3,         0.3,         0.3,  9.9949e+08,  9.9949e+08
 4.99745e+08,
*Material, name=MAT_ANISO_13
*Elastic, type=ENGINEERING CONSTANTS
 2.2368e+09,  1.1184e+09,  1.1184e+09,         0.3,         0.3,         0.3, 8.60306e+08, 8.60306e+08
 4.30153e+08,
*Material, name=MAT_ANISO_14
*Elastic, type=ENGINEERING CONSTANTS
 1.90903e+09, 9.54513e+08, 9.54513e+08,         0.3,         0.3,         0.3, 7.34241e+08, 7.34241e+08
  3.6712e+08,
*Material, name=MAT_ANISO_15
*Elastic, type=ENGINEERING CONSTANTS
 1.61536e+09, 8.07682e+08, 8.07682e+08,         0.3,         0.3,         0.3, 6.21294e+08, 6.21294e+08
 3.10647e+08,
*Material, name=MAT_ANISO_16
*Elastic, type=ENGINEERING CONSTANTS
 1.35581e+09, 6.77905e+08, 6.77905e+08,         0.3,         0.3,         0.3, 5.21466e+08, 5.21466e+08
 2.60733e+08,
*Material, name=MAT_ANISO_17
*Elastic, type=ENGINEERING CONSTANTS
 1.13036e+09, 5.65182e+08, 5.65182e+08,         0.3,         0.3,         0.3, 4.34756e+08, 4.34756e+08
 2.17378e+08,
*Material, name=MAT_ANISO_18
*Elastic, type=ENGINEERING CONSTANTS
 9.39027e+08, 4.69513e+08, 4.69513e+08,         0.3,         0.3,         0.3, 3.61164e+08, 3.61164e+08
 1.80582e+08,
*Material, name=MAT_ANISO_19
*Elastic, type=ENGINEERING CONSTANTS
 7.81797e+08, 3.90898e+08, 3.90898e+08,         0.3,         0.3,         0.3, 3.00691e+08, 3.00691e+08
 1.50345e+08,
** 
** BOUNDARY CONDITIONS
** 
** Name: FIX_BOT Type: Displacement/Rotation
*Boundary
_PickedSet3, 1, 1
_PickedSet3, 2, 2
_PickedSet3, 3, 3
** ----------------------------------------------------------------
** 
** STEP: LOAD
** 
*Step, name=LOAD, nlgeom=NO
*Static
0.1, 1., 1e-05, 1.
** 
** LOADS
** 
** Name: PRESS   Type: Pressure
*Dsload
_PickedSurf4, P, 1e+06
** 
** OUTPUT REQUESTS
** 
*Restart, write, frequency=0
** 
** FIELD OUTPUT: F-Output-1
** 
*Output, field, variable=PRESELECT
** 
** HISTORY OUTPUT: H-Output-1
** 
*Output, history, variable=PRESELECT
*End Step
