*Heading
 Aniso biofilm  beta=0.50  e1=[1.00,0.00,0.00]
** Job name: dh_cube_v2 Model name: BiofilmAniso3D
** Generated by: Abaqus/CAE 2024
*Preprint, echo=NO, model=NO, history=NO, contact=NO
**
** PARTS
**
*Part, name=Biofilm
*Node
      1,           1.,           1.,           1.
      2,           1.,  0.928571403,           1.
      3,           1.,  0.857142866,           1.
      4,           1.,  0.785714269,           1.
      5,           1.,  0.714285731,           1.
      6,           1.,  0.642857134,           1.
      7,           1.,  0.571428597,           1.
      8,           1.,          0.5,           1.
      9,           1.,  0.428571433,           1.
     10,           1.,  0.357142866,           1.
     11,           1.,  0.285714298,           1.
     12,           1.,  0.214285716,           1.
     13,           1.,  0.142857149,           1.
     14,           1., 0.0714285746,           1.
     15,           1.,           0.,           1.
     16,           1.,           1.,  0.928571403
     17,           1.,  0.928571403,  0.928571403
     18,           1.,  0.857142866,  0.928571403
     19,           1.,  0.785714269,  0.928571403
     20,           1.,  0.714285731,  0.928571403
** ... 3355 like lines cut
*Element, type=C3D8R
   1,  226,  227,  242,  241,    1,    2,   17,   16
   2,  227,  228,  243,  242,    2,    3,   18,   17
   3,  228,  229,  244,  243,    3,    4,   19,   18
   4,  229,  230,  245,  244,    4,    5,   20,   19
   5,  230,  231,  246,  245,    5,    6,   21,   20
   6,  231,  232,  247,  246,    6,    7,   22,   21
   7,  232,  233,  248,  247,    7,    8,   23,   22
   8,  233,  234,  249,  248,    8,    9,   24,   23
   9,  234,  235,  250,  249,    9,   10,   25,   24
  10,  235,  236,  251,  250,   10,   11,   26,   25
  11,  236,  237,  252,  251,   11,   12,   27,   26
  12,  237,  238,  253,  252,   12,   13,   28,   27
  13,  238,  239,  254,  253,   13,   14,   29,   28
  14,  239,  240,  255,  254,   14,   15,   30,   29
  15,  241,  242,  257,  256,   16,   17,   32,   31
  16,  242,  243,  258,  257,   17,   18,   33,   32
  17,  243,  244,  259,  258,   18,   19,   34,   33
  18,  244,  245,  260,  259,   19,   20,   35,   34
  19,  245,  246,  261,  260,   20,   21,   36,   35
  20,  246,  247,  262,  261,   21,   22,   37,   36
** ... 2724 like lines cut
*Elset, elset=_PickedSet4, internal
  555, 1402
*Elset, elset=_PickedSet5, internal
  139,  205,  372,  373,  524,  712,  908, 1076, 1266, 1353, 1408, 1800, 1931, 1958, 2162
*Elset, elset=_PickedSet6, internal
    9,   24,   45,   49,   59,   63,   93,  105,  122,  197,  207,  214,  215,  223,  240,  245
  254,  259,  267,  308,  318,  330,  357,  375,  389,  403,  415,  440,  454,  478,  494,  495
  514,  520,  536,  537,  538,  563,  589,  606,  607,  630,  714,  731,  777,  785,  802,  803
  826,  910,  927,  973, 1054, 1055, 1070, 1134, 1161, 1168, 1172, 1174, 1210, 1227, 1241, 1309
 1333, 1357, 1360, 1426, 1440, 1476, 1521, 1560, 1565, 1576, 1588, 1590, 1659, 1688, 1711, 1774
 1813, 1827, 1863, 1880, 1881, 2097, 2104, 2105, 2107, 2140, 2145, 2310, 2362, 2401, 2415
*Elset, elset=_PickedSet7, internal
    1,   16,   18,   19,   20,   22,   23,   29,   30,   55,   69,   78,   88,   89,   92,   94
   96,  106,  109,  124,  130,  131,  140,  167,  168,  172,  173,  175,  176,  191,  199,  209
  221,  238,  241,  242,  243,  255,  256,  257,  272,  282,  287,  297,  303,  311,  317,  321
  334,  338,  340,  341,  349,  374,  391,  392,  394,  408,  421,  441,  444,  455,  458,  482
  508,  509,  512,  553,  561,  583,  592,  593,  601,  604,  609,  631,  642,  645,  656,  668
  675,  676,  677,  680,  718,  719,  726,  728,  730,  732,  733,  759,  763,  765,  771,  783
  788,  789,  797,  800,  805,  827,  838,  841,  852,  864,  871,  872,  873,  876,  914,  915
  922,  924,  926,  928,  929,  955,  959,  961,  967,  979,  991, 1003, 1009, 1022, 1059, 1062
 1068, 1069, 1081, 1113, 1118, 1119, 1121, 1130, 1133, 1151, 1156, 1159, 1160, 1171, 1182, 1190
 1191, 1196, 1212, 1255, 1270, 1284, 1291, 1295, 1299, 1325, 1348, 1349, 1364, 1367, 1369, 1370
 1371, 1373, 1380, 1383, 1399, 1407, 1412, 1428, 1442, 1456, 1458, 1481, 1487, 1496, 1509, 1522
 1525, 1528, 1529, 1532, 1540, 1541, 1568, 1597, 1604, 1616, 1630, 1652, 1662, 1666, 1674, 1676
 1696, 1704, 1705, 1712, 1713, 1721, 1724, 1725, 1744, 1861, 1864, 1879, 1882, 1946, 1952, 1954
 1997, 2011, 2025, 2042, 2052, 2098, 2112, 2124, 2176, 2177, 2192, 2198, 2248, 2251, 2267, 2432
 2448, 2461, 2504, 2546, 2559, 2591, 2605, 2622, 2623, 2643, 2652, 2725
*Elset, elset=_PickedSet8, internal
    2,   10,   17,   21,   28,   31,   35,   72,   73,   76,   77,  111,  116,  117,  128,  135
  136,  150,  158,  159,  162,  164,  180,  181,  182,  192,  198,  206,  208,  216,  218,  224
  230,  234,  246,  250,  252,  260,  264,  266,  268,  270,  271,  274,  280,  289,  296,  307
  319,  323,  324,  328,  335,  354,  355,  358,  359,  362,  378,  388,  393,  413,  418,  422
  423,  430,  443,  445,  457,  459,  473,  483,  490,  491,  497,  501,  502,  504,  506,  516
  534,  554,  556,  558,  566,  585,  588,  599,  608,  611,  625,  632,  646,  659,  664,  665
  673,  690,  691,  695,  698,  704,  705,  711,  717,  720,  723,  724,  729,  734,  735,  740
  744,  754,  758,  762,  784,  795,  804,  807,  821,  828,  842,  855,  860,  861,  869,  886
  887,  891,  894,  900,  901,  907,  913,  916,  919,  920,  925,  930,  931,  936,  940,  950
  954,  958,  980,  990,  995, 1001, 1020, 1023, 1025, 1030, 1037, 1039, 1044, 1052, 1056, 1071
 1082, 1083, 1085, 1088, 1095, 1101, 1104, 1106, 1122, 1124, 1125, 1127, 1131, 1135, 1143, 1145
 1148, 1149, 1163, 1173, 1175, 1185, 1186, 1187, 1197, 1205, 1206, 1216, 1217, 1222, 1223, 1226
 1231, 1236, 1237, 1240, 1245, 1249, 1260, 1262, 1278, 1279, 1287, 1304, 1305, 1312, 1322, 1331
 1336, 1351, 1352, 1381, 1384, 1387, 1401, 1404, 1405, 1416, 1425, 1430, 1439, 1460, 1461, 1474
 1475, 1478, 1479, 1485, 1495, 1498, 1500, 1502, 1503, 1505, 1524, 1533, 1535, 1548, 1553, 1554
 1562, 1563, 1566, 1571, 1572, 1573, 1578, 1581, 1582, 1589, 1592, 1603, 1619, 1621, 1633, 1635
 1641, 1654, 1670, 1671, 1672, 1678, 1680, 1684, 1685, 1686, 1692, 1697, 1709, 1716, 1717, 1720
 1729, 1735, 1745, 1747, 1753, 1762, 1764, 1766, 1777, 1778, 1784, 1796, 1797, 1810, 1811, 1824
 1825, 1841, 1851, 1866, 1867, 1888, 1889, 1892, 1906, 1917, 1918, 1920, 1926, 1927, 1932, 1939
 1941, 1942, 1956, 1957, 1970, 1982, 1985, 2000, 2076, 2077, 2089, 2092, 2113, 2139, 2169, 2172
 2184, 2196, 2235, 2238, 2241, 2243, 2307, 2342, 2343, 2380, 2387, 2391, 2398, 2399, 2400, 2405
 2412, 2413, 2414, 2419, 2428, 2439, 2440, 2441, 2442, 2459, 2474, 2484, 2508, 2518, 2521, 2650
 2651, 2676, 2685, 2731
*Elset, elset=_PickedSet9, internal
    3,    6,   15,   37,   42,   50,   54,   64,   68,   83,   86,  101,  107,  112,  120,  125
  129,  152,  163,  165,  166,  170,  183,  184,  186,  187,  190,  194,  204,  217,  220,  227
  228,  229,  232,  233,  235,  237,  247,  248,  261,  262,  269,  290,  298,  299,  300,  302
  304,  306,  309,  316,  320,  343,  344,  348,  350,  360,  364,  379,  380,  398,  426,  429
  434,  437,  438,  439,  451,  452,  453,  463,  469,  475,  480,  481,  492,  493,  515,  519
  521,  525,  526,  533,  542,  548,  550,  551,  552,  560,  571,  573,  584,  595,  596,  603
  614,  618,  623,  637,  643,  644,  651,  657,  658,  662,  663,  669,  671,  672,  678,  682
  686,  700,  702,  706,  708,  710,  715,  721,  738,  739,  743,  755,  757,  768,  772,  773
  776,  778,  779,  791,  792,  799,  810,  814,  819,  833,  839,  840,  847,  853,  854,  858
  859,  865,  867,  868,  874,  878,  882,  896,  898,  902,  904,  906,  911,  917,  934,  935
  939,  951,  953,  964,  968,  969,  972,  974,  975,  982,  983,  986,  989,  997, 1004, 1005
 1010, 1016, 1021, 1024, 1029, 1031, 1035, 1036, 1038, 1043, 1045, 1049, 1050, 1051, 1063, 1064
 1072, 1078, 1086, 1091, 1096, 1097, 1100, 1126, 1128, 1132, 1136, 1137, 1138, 1139, 1154, 1155
 1157, 1158, 1164, 1180, 1181, 1207, 1211, 1221, 1224, 1235, 1238, 1248, 1256, 1258, 1259, 1261
 1274, 1275, 1282, 1283, 1286, 1289, 1290, 1296, 1300, 1306, 1307, 1314, 1318, 1327, 1329, 1332
 1334, 1335, 1339, 1345, 1346, 1347, 1350, 1375, 1385, 1390, 1391, 1396, 1403, 1410, 1422, 1423
 1427, 1436, 1437, 1441, 1449, 1467, 1469, 1472, 1477, 1486, 1501, 1512, 1514, 1516, 1517, 1520
 1530, 1531, 1546, 1551, 1561, 1585, 1591, 1598, 1606, 1612, 1613, 1614, 1615, 1626, 1627, 1628
 1629, 1644, 1648, 1650, 1655, 1661, 1664, 1668, 1679, 1698, 1699, 1700, 1701, 1703, 1708, 1714
 1715, 1723, 1748, 1763, 1765, 1785, 1787, 1793, 1794, 1795, 1799, 1820, 1834, 1837, 1838, 1839
** ... 7 like lines cut
*Elset, elset=_PickedSet10, internal
   11,   14,   26,   27,   32,   33,   53,   67,   71,   74,   75,   85,   97,   98,  102,  103
  118,  119,  132,  137,  138,  142,  144,  145,  155,  160,  161,  171,  185,  195,  203,  211
  219,  226,  239,  249,  253,  263,  278,  281,  291,  310,  312,  313,  337,  342,  352,  365
  366,  381,  387,  395,  396,  397,  404,  407,  409,  410,  411,  414,  420,  424,  425,  432
  442,  446,  447,  456,  460,  461,  464,  472,  476,  484,  499,  500,  507,  522,  523,  528
  530,  545,  549,  557,  567,  569,  570,  582,  600,  602,  605,  610,  613,  622,  633,  636
  639,  647,  650,  653,  660,  661,  684,  694,  696,  697,  707,  713,  722,  741,  742,  752
  753,  760,  761,  769,  770,  780,  796,  798,  801,  806,  809,  818,  829,  832,  835,  843
  846,  849,  856,  857,  880,  890,  892,  893,  903,  909,  918,  937,  938,  948,  949,  956
  957,  965,  966,  976,  992,  993,  998,  999, 1007, 1011, 1019, 1033, 1047, 1057, 1058, 1067
 1073, 1077, 1084, 1087, 1092, 1094, 1108, 1109, 1114, 1116, 1117, 1120, 1123, 1147, 1166, 1167
 1169, 1189, 1202, 1214, 1218, 1232, 1246, 1247, 1252, 1268, 1269, 1271, 1272, 1288, 1294, 1297
 1301, 1310, 1311, 1315, 1316, 1319, 1323, 1324, 1326, 1341, 1342, 1343, 1359, 1361, 1365, 1366
 1376, 1377, 1386, 1388, 1393, 1397, 1398, 1406, 1415, 1418, 1419, 1420, 1429, 1432, 1433, 1434
 1444, 1445, 1446, 1447, 1448, 1450, 1453, 1459, 1463, 1464, 1465, 1466, 1468, 1470, 1473, 1483
 1490, 1491, 1492, 1493, 1497, 1506, 1513, 1523, 1526, 1543, 1549, 1550, 1567, 1574, 1575, 1580
 1584, 1594, 1602, 1605, 1607, 1611, 1620, 1622, 1623, 1625, 1634, 1636, 1637, 1647, 1667, 1683
 1702, 1707, 1718, 1737, 1738, 1739, 1743, 1751, 1767, 1770, 1789, 1790, 1802, 1807, 1821, 1836
 1844, 1847, 1849, 1850, 1854, 1856, 1860, 1870, 1872, 1875, 1878, 1886, 1904, 1905, 1908, 1909
 1914, 1915, 1919, 1922, 1923, 1960, 1963, 1964, 1965, 1981, 1984, 1987, 1988, 1998, 2004, 2018
** ... 5 like lines cut
*Elset, elset=_PickedSet11, internal
    4,    5,   12,   38,   41,   43,   44,   51,   57,   58,   65,   79,   80,   84,   87,   91
  100,  114,  126,  148,  151,  153,  154,  169,  177,  188,  189,  202,  212,  213,  222,  236
  244,  251,  258,  265,  276,  277,  294,  314,  315,  325,  326,  327,  336,  356,  361,  363
  367,  371,  376,  382,  383,  385,  399,  400,  427,  435,  449,  466,  467,  468,  479,  485
  486,  487,  488,  489,  496,  510,  513,  529,  535,  541,  543,  547,  559,  568,  577,  578
  579,  580,  581,  590,  594,  612,  615,  617,  627,  629,  640,  654,  667,  670,  685,  688
  689,  693,  709,  727,  736,  746,  747,  749,  750,  751,  774,  775,  786,  790,  808,  811
  813,  823,  825,  836,  850,  863,  866,  881,  884,  885,  889,  905,  923,  932,  942,  943
  945,  946,  947,  970,  971,  987,  996, 1000, 1006, 1008, 1015, 1032, 1034, 1046, 1048, 1053
 1060, 1061, 1074, 1075, 1079, 1099, 1102, 1103, 1112, 1115, 1140, 1141, 1142, 1152, 1153, 1165
 1176, 1178, 1179, 1193, 1194, 1195, 1199, 1200, 1201, 1204, 1208, 1209, 1213, 1228, 1229, 1230
 1242, 1243, 1244, 1250, 1251, 1273, 1280, 1292, 1293, 1302, 1303, 1308, 1313, 1320, 1321, 1338
 1344, 1355, 1356, 1372, 1374, 1379, 1389, 1394, 1409, 1455, 1462, 1471, 1480, 1482, 1484, 1494
 1504, 1508, 1510, 1515, 1536, 1544, 1545, 1552, 1570, 1579, 1595, 1596, 1600, 1601, 1609, 1610
 1618, 1632, 1639, 1642, 1643, 1651, 1663, 1681, 1682, 1695, 1722, 1726, 1727, 1728, 1734, 1736
 1742, 1746, 1749, 1754, 1755, 1780, 1782, 1783, 1792, 1816, 1830, 1840, 1842, 1852, 1853, 1865
 1869, 1871, 1885, 1890, 1897, 1902, 1929, 1934, 1935, 1943, 1947, 1959, 1969, 1978, 1979, 1990
 1994, 2003, 2013, 2015, 2017, 2027, 2029, 2037, 2043, 2048, 2049, 2050, 2054, 2059, 2066, 2081
 2082, 2088, 2099, 2100, 2102, 2120, 2125, 2130, 2134, 2136, 2150, 2152, 2154, 2155, 2164, 2167
 2183, 2187, 2188, 2189, 2191, 2201, 2207, 2209, 2212, 2215, 2221, 2223, 2226, 2228, 2242, 2255
** ... 5 like lines cut
*Elset, elset=_PickedSet12, internal
    7,    8,   13,   34,   36,   46,   47,   60,   61,   81,  104,  108,  113,  115,  127,  146
  147,  149,  156,  179,  196,  275,  283,  286,  292,  301,  329,  331,  333,  353,  370,  384
  401,  405,  416,  428,  433,  448,  462,  505,  511,  517,  527,  531,  540,  562,  572,  574
  587,  591,  597,  619,  624,  674,  679,  692,  701,  716,  737,  745,  756,  766,  787,  793
  815,  820,  870,  875,  888,  897,  912,  933,  941,  952,  962,  981,  984,  985,  988, 1014
 1017, 1028, 1042, 1066, 1093, 1105, 1129, 1144, 1146, 1177, 1198, 1257, 1264, 1265, 1281, 1285
 1298, 1330, 1358, 1378, 1382, 1395, 1411, 1414, 1421, 1435, 1451, 1452, 1454, 1457, 1488, 1489
 1511, 1519, 1534, 1538, 1556, 1558, 1559, 1564, 1569, 1577, 1593, 1599, 1617, 1624, 1631, 1638
 1645, 1653, 1669, 1694, 1750, 1752, 1756, 1760, 1771, 1773, 1776, 1779, 1786, 1791, 1801, 1803
 1804, 1806, 1812, 1815, 1819, 1826, 1829, 1833, 1862, 1868, 1883, 1894, 1895, 1899, 1925, 1940
 1944, 1949, 1950, 1951, 1955, 1967, 1972, 1973, 1976, 1991, 2002, 2006, 2007, 2008, 2012, 2020
 2021, 2022, 2026, 2032, 2047, 2057, 2062, 2063, 2064, 2070, 2071, 2073, 2080, 2083, 2108, 2109
 2117, 2123, 2126, 2156, 2171, 2179, 2180, 2200, 2208, 2214, 2222, 2229, 2232, 2233, 2239, 2250
 2258, 2259, 2261, 2280, 2284, 2286, 2287, 2328, 2329, 2338, 2346, 2383, 2386, 2393, 2407, 2421
 2426, 2427, 2429, 2431, 2447, 2452, 2466, 2476, 2480, 2482, 2483, 2486, 2487, 2496, 2497, 2499
 2501, 2503, 2505, 2510, 2511, 2515, 2519, 2522, 2526, 2533, 2560, 2563, 2577, 2582, 2592, 2603
 2606, 2617, 2632, 2633, 2636, 2637, 2642, 2645, 2663, 2671, 2672, 2678, 2679, 2688, 2696, 2703
 2715, 2716, 2719, 2727, 2728, 2736, 2739
*Elset, elset=_PickedSet13, internal
   25,   39,   40,   90,   95,  110,  121,  133,  134,  273,  279,  284,  285,  288,  293,  322
  346,  347,  368,  369,  386,  390,  402,  406,  465,  474,  477,  539,  544,  564,  565,  575
  576,  586,  616,  620,  621,  634,  635,  648,  649,  699,  725,  764,  781,  812,  816,  817
  830,  831,  844,  845,  895,  921,  960,  977, 1026, 1027, 1040, 1041, 1080, 1089, 1107, 1150
 1170, 1203, 1225, 1239, 1253, 1276, 1277, 1328, 1337, 1368, 1400, 1417, 1431, 1443, 1507, 1518
 1527, 1537, 1555, 1608, 1649, 1656, 1657, 1660, 1673, 1677, 1706, 1710, 1730, 1731, 1732, 1740
 1741, 1757, 1761, 1768, 1769, 1781, 1798, 1809, 1817, 1818, 1823, 1831, 1832, 1835, 1848, 1859
 1896, 1901, 1911, 1921, 1961, 1971, 1992, 1993, 1996, 2001, 2016, 2030, 2036, 2038, 2045, 2060
 2087, 2090, 2091, 2101, 2115, 2127, 2137, 2143, 2148, 2157, 2168, 2193, 2199, 2210, 2213, 2224
 2244, 2245, 2249, 2260, 2262, 2264, 2274, 2277, 2288, 2291, 2297, 2300, 2301, 2306, 2309, 2312
 2331, 2340, 2341, 2348, 2349, 2350, 2365, 2367, 2372, 2373, 2376, 2378, 2403, 2408, 2417, 2422
 2423, 2424, 2457, 2458, 2467, 2502, 2514, 2524, 2525, 2547, 2554, 2570, 2573, 2575, 2590, 2599
 2602, 2613, 2616, 2626, 2629, 2641, 2649, 2654, 2657, 2658, 2661, 2668, 2670, 2680, 2682, 2683
 2698, 2704, 2709, 2713, 2718, 2724, 2737, 2738, 2741
*Elset, elset=_PickedSet14, internal
   48,   62,  178,  193,  231,  295,  339,  431,  436,  450,  470,  498,  503,  532,  626,  638
  641,  652,  655,  703,  748,  767,  822,  834,  837,  848,  851,  899,  944,  963, 1065, 1090
 1110, 1111, 1162, 1183, 1192, 1219, 1220, 1233, 1234, 1263, 1267, 1317, 1340, 1392, 1424, 1438
 1499, 1539, 1557, 1583, 1586, 1587, 1640, 1646, 1658, 1665, 1687, 1689, 1690, 1691, 1719, 1758
 1759, 1788, 1843, 1846, 1857, 1891, 1913, 1936, 1937, 2039, 2051, 2053, 2058, 2078, 2084, 2151
 2174, 2175, 2190, 2252, 2254, 2272, 2273, 2298, 2318, 2325, 2345, 2353, 2356, 2357, 2360, 2361
 2389, 2402, 2416, 2445, 2450, 2456, 2472, 2479, 2494, 2535, 2540, 2542, 2550, 2552, 2553, 2556
 2565, 2566, 2567, 2576, 2580, 2581, 2583, 2584, 2587, 2601, 2615, 2621, 2628, 2630, 2635, 2638
 2639, 2653, 2655, 2660, 2667, 2697, 2705
*Elset, elset=_PickedSet15, internal
   56,   70,  123,  141,  143,  157,  200,  201,  210,  345,  412,  518,  546,  782,  978, 1018
 1184, 1188, 1254, 1354, 1362, 1363, 1542, 1675, 1775, 1805, 1814, 1828, 1977, 2009, 2023, 2034
 2035, 2128, 2129, 2160, 2161, 2182, 2194, 2195, 2205, 2219, 2285, 2292, 2313, 2320, 2327, 2358
 2364, 2369, 2379, 2404, 2418, 2449, 2451, 2490, 2495, 2498, 2541, 2562, 2564, 2568, 2600, 2614
 2619, 2625, 2627, 2640, 2644, 2647, 2659, 2664, 2665, 2690, 2695, 2726, 2733, 2743, 2744
*Elset, elset=_PickedSet16, internal
   82,   99,  174,  225,  305,  332,  419,  628,  666,  683,  687,  824,  862,  879,  883, 1012
 1013, 1098, 1413, 1733, 1808, 1822, 1845, 1884, 1945, 1962, 2040, 2118, 2119, 2163, 2211, 2225
 2263, 2279, 2294, 2302, 2355, 2382, 2430, 2433, 2438, 2544, 2656, 2681, 2686, 2691, 2700, 2723
 2742,
*Elset, elset=_PickedSet17, internal
   52,   66,  377,  471, 1002, 1547, 1772, 1858, 2014, 2028, 2173, 2305, 2332, 2377, 2390, 2534
 2536, 2572, 2578, 2589, 2604, 2618, 2702, 2706, 2707
*Elset, elset=_PickedSet18, internal
  351,  417,  598,  794,  994, 1215, 1986, 2141, 2271, 2314, 2315, 2368, 2392, 2464, 2488, 2520
 2574, 2634, 2722
*Elset, elset=_PickedSet19, internal
 1693, 2471, 2558
*Elset, elset=_PickedSet20, internal
  681,  877, 2569, 2714
*Elset, elset=_PickedSet21, internal
 2347, 2624, 2646
*Elset, elset=_PickedSet22, internal
 2257,
*Orientation, name=Ori-1
          1.,           0.,           0.,           0.,           0.,           1.
1, 0.
** Section: SEC_ANISO_04
*Solid Section, elset=_PickedSet7, orientation=Ori-1, material=MAT_ANISO_04
,
** Section: SEC_ANISO_05
*Solid Section, elset=_PickedSet8, orientation=Ori-1, material=MAT_ANISO_05
,
** Section: SEC_ANISO_06
*Solid Section, elset=_PickedSet9, orientation=Ori-1, material=MAT_ANISO_06
,
** Section: SEC_ANISO_08
*Solid Section, elset=_PickedSet11, orientation=Ori-1, material=MAT_ANISO_08
,
** Section: SEC_ANISO_09
*Solid Section, elset=_PickedSet12, orientation=Ori-1, material=MAT_ANISO_09
,
** Section: SEC_ANISO_03
*Solid Section, elset=_PickedSet6, orientation=Ori-1, material=MAT_ANISO_03
,
** Section: SEC_ANISO_07
*Solid Section, elset=_PickedSet10, orientation=Ori-1, material=MAT_ANISO_07
,
** Section: SEC_ANISO_10
*Solid Section, elset=_PickedSet13, orientation=Ori-1, material=MAT_ANISO_10
,
** Section: SEC_ANISO_11
*Solid Section, elset=_PickedSet14, orientation=Ori-1, material=MAT_ANISO_11
,
** Section: SEC_ANISO_14
*Solid Section, elset=_PickedSet17, orientation=Ori-1, material=MAT_ANISO_14
,
** Section: SEC_ANISO_12
*Solid Section, elset=_PickedSet15, orientation=Ori-1, material=MAT_ANISO_12
,
** Section: SEC_ANISO_13
*Solid Section, elset=_PickedSet16, orientation=Ori-1, material=MAT_ANISO_13
,
** Section: SEC_ANISO_02
*Solid Section, elset=_PickedSet5, orientation=Ori-1, material=MAT_ANISO_02
,
** Section: SEC_ANISO_15
*Solid Section, elset=_PickedSet18, orientation=Ori-1, material=MAT_ANISO_15
,
** Section: SEC_ANISO_01
*Solid Section, elset=_PickedSet4, orientation=Ori-1, material=MAT_ANISO_01
,
** Section: SEC_ANISO_17
*Solid Section, elset=_PickedSet20, orientation=Ori-1, material=MAT_ANISO_17
,
** Section: SEC_ANISO_16
*Solid Section, elset=_PickedSet19, orientation=Ori-1, material=MAT_ANISO_16
,
** Section: SEC_ANISO_19
*Solid Section, elset=_PickedSet22, orientation=Ori-1, material=MAT_ANISO_19
,
** Section: SEC_ANISO_18
*Solid Section, elset=_PickedSet21, orientation=Ori-1, material=MAT_ANISO_18
,
*End Part
**  
**
** ASSEMBLY
**
*Assembly, name=Assembly
**  
*Instance, name=BioInst, part=Biofilm
*End Instance
**  
*Nset, nset=_PickedSet3, internal, instance=BioInst
  211,  212,  213,  214,  215,  216,  217,  218,  219,  220,  221,  222,  223,  224,  225,  436
  437,  438,  439,  440,  441,  442,  443,  444,  445,  446,  447,  448,  449,  450,  661,  662
  663,  664,  665,  666,  667,  668,  669,  670,  671,  672,  673,  674,  675,  886,  887,  888
  889,  890,  891,  892,  893,  894,  895,  896,  897,  898,  899,  900, 1111, 1112, 1113, 1114
 1115, 1116, 1117, 1118, 1119, 1120, 1121, 1122, 1123, 1124, 1125, 1336, 1337, 1338, 1339, 1340
 1341, 1342, 1343, 1344, 1345, 1346, 1347, 1348, 1349, 1350, 1561, 1562, 1563, 1564, 1565, 1566
 1567, 1568, 1569, 1570, 1571, 1572, 1573, 1574, 1575, 1786, 1787, 1788, 1789, 1790, 1791, 1792
 1793, 1794, 1795, 1796, 1797, 1798, 1799, 1800, 2011, 2012, 2013, 2014, 2015, 2016, 2017, 2018
 2019, 2020, 2021, 2022, 2023, 2024, 2025, 2236, 2237, 2238, 2239, 2240, 2241, 2242, 2243, 2244
 2245, 2246, 2247, 2248, 2249, 2250, 2461, 2462, 2463, 2464, 2465, 2466, 2467, 2468, 2469, 2470
 2471, 2472, 2473, 2474, 2475, 2686, 2687, 2688, 2689, 2690, 2691, 2692, 2693, 2694, 2695, 2696
 2697, 2698, 2699, 2700, 2911, 2912, 2913, 2914, 2915, 2916, 2917, 2918, 2919, 2920, 2921, 2922
 2923, 2924, 2925, 3136, 3137, 3138, 3139, 3140, 3141, 3142, 3143, 3144, 3145, 3146, 3147, 3148
 3149, 3150, 3361, 3362, 3363, 3364, 3365, 3366, 3367, 3368, 3369, 3370, 3371, 3372, 3373, 3374
 3375,
*Elset, elset=_PickedSet3, internal, instance=BioInst
  183,  184,  185,  186,  187,  188,  189,  190,  191,  192,  193,  194,  195,  196,  379,  380
  381,  382,  383,  384,  385,  386,  387,  388,  389,  390,  391,  392,  575,  576,  577,  578
  579,  580,  581,  582,  583,  584,  585,  586,  587,  588,  771,  772,  773,  774,  775,  776
  777,  778,  779,  780,  781,  782,  783,  784,  967,  968,  969,  970,  971,  972,  973,  974
  975,  976,  977,  978,  979,  980, 1163, 1164, 1165, 1166, 1167, 1168, 1169, 1170, 1171, 1172
 1173, 1174, 1175, 1176, 1359, 1360, 1361, 1362, 1363, 1364, 1365, 1366, 1367, 1368, 1369, 1370
 1371, 1372, 1555, 1556, 1557, 1558, 1559, 1560, 1561, 1562, 1563, 1564, 1565, 1566, 1567, 1568
 1751, 1752, 1753, 1754, 1755, 1756, 1757, 1758, 1759, 1760, 1761, 1762, 1763, 1764, 1947, 1948
 1949, 1950, 1951, 1952, 1953, 1954, 1955, 1956, 1957, 1958, 1959, 1960, 2143, 2144, 2145, 2146
 2147, 2148, 2149, 2150, 2151, 2152, 2153, 2154, 2155, 2156, 2339, 2340, 2341, 2342, 2343, 2344
 2345, 2346, 2347, 2348, 2349, 2350, 2351, 2352, 2535, 2536, 2537, 2538, 2539, 2540, 2541, 2542
 2543, 2544, 2545, 2546, 2547, 2548, 2731, 2732, 2733, 2734, 2735, 2736, 2737, 2738, 2739, 2740
 2741, 2742, 2743, 2744
*Elset, elset=__PickedSurf4_S3, internal, instance=BioInst
    1,    2,    3,    4,    5,    6,    7,    8,    9,   10,   11,   12,   13,   14,  197,  198
  199,  200,  201,  202,  203,  204,  205,  206,  207,  208,  209,  210,  393,  394,  395,  396
  397,  398,  399,  400,  401,  402,  403,  404,  405,  406,  589,  590,  591,  592,  593,  594
  595,  596,  597,  598,  599,  600,  601,  602,  785,  786,  787,  788,  789,  790,  791,  792
  793,  794,  795,  796,  797,  798,  981,  982,  983,  984,  985,  986,  987,  988,  989,  990
  991,  992,  993,  994, 1177, 1178, 1179, 1180, 1181, 1182, 1183, 1184, 1185, 1186, 1187, 1188
 1189, 1190, 1373, 1374, 1375, 1376, 1377, 1378, 1379, 1380, 1381, 1382, 1383, 1384, 1385, 1386
 1569, 1570, 1571, 1572, 1573, 1574, 1575, 1576, 1577, 1578, 1579, 1580, 1581, 1582, 1765, 1766
 1767, 1768, 1769, 1770, 1771, 1772, 1773, 1774, 1775, 1776, 1777, 1778, 1961, 1962, 1963, 1964
 1965, 1966, 1967, 1968, 1969, 1970, 1971, 1972, 1973, 1974, 2157, 2158, 2159, 2160, 2161, 2162
 2163, 2164, 2165, 2166, 2167, 2168, 2169, 2170, 2353, 2354, 2355, 2356, 2357, 2358, 2359, 2360
 2361, 2362, 2363, 2364, 2365, 2366, 2549, 2550, 2551, 2552, 2553, 2554, 2555, 2556, 2557, 2558
 2559, 2560, 2561, 2562
*Surface, type=ELEMENT, name=_PickedSurf4, internal
__PickedSurf4_S3, S3
*End Assembly
** 
** MATERIALS
** 
*Material, name=MAT_ANISO_00
*Elastic, type=ENGINEERING CONSTANTS
 9.60162e+09, 4.80081e+09, 4.80081e+09,         0.3,         0.3,         0.3, 3.69293e+09, 3.69293e+09
 1.84647e+09,
*Material, name=MAT_ANISO_01
*Elastic, type=ENGINEERING CONSTANTS
 8.83045e+09, 4.41523e+09, 4.41523e+09,         0.3,         0.3,         0.3, 3.39633e+09, 3.39633e+09
 1.69816e+09,
*Material, name=MAT_ANISO_02
*Elastic, type=ENGINEERING CONSTANTS
 8.09339e+09, 4.04669e+09, 4.04669e+09,         0.3,         0.3,         0.3, 3.11284e+09, 3.11284e+09
 1.55642e+09,
*Material, name=MAT_ANISO_03
*Elastic, type=ENGINEERING CONSTANTS
 7.39043e+09, 3.69521e+09, 3.69521e+09,         0.3,         0.3,         0.3, 2.84247e+09, 2.84247e+09
 1.42124e+09,
*Material, name=MAT_ANISO_04
*Elastic, type=ENGINEERING CONSTANTS
 6.72158e+09, 3.36079e+09, 3.36079e+09,         0.3,         0.3,         0.3, 2.58522e+09, 2.58522e+09
 1.29261e+09,
*Material, name=MAT_ANISO_05
*Elastic, type=ENGINEERING CONSTANTS
 6.08684e+09, 3.04342e+09, 3.04342e+09,         0.3,         0.3,         0.3, 2.34109e+09, 2.34109e+09
 1.17055e+09,
*Material, name=MAT_ANISO_06
*Elastic, type=ENGINEERING CONSTANTS
 5.48621e+09,  2.7431e+09,  2.7431e+09,         0.3,         0.3,         0.3, 2.11008e+09, 2.11008e+09
 1.05504e+09,
*Material, name=MAT_ANISO_07
*Elastic, type=ENGINEERING CONSTANTS
 4.91968e+09, 2.45984e+09, 2.45984e+09,         0.3,         0.3,         0.3, 1.89218e+09, 1.89218e+09
 9.46092e+08,
*Material, name=MAT_ANISO_08
*Elastic, type=ENGINEERING CONSTANTS
 4.38726e+09, 2.19363e+09, 2.19363e+09,         0.3,         0.3,         0.3, 1.68741e+09, 1.68741e+09
 8.43704e+08,
*Material, name=MAT_ANISO_09
*Elastic, type=ENGINEERING CONSTANTS
 3.88895e+09, 1.94448e+09, 1.94448e+09,         0.3,         0.3,         0.3, 1.49575e+09, 1.49575e+09
 7.47876e+08,
*Material, name=MAT_ANISO_10
*Elastic, type=ENGINEERING CONSTANTS
 3.42475e+09, 1.71238e+09, 1.71238e+09,         0.3,         0.3,         0.3, 1.31721e+09, 1.31721e+09
 6.58606e+08,
*Material, name=MAT_ANISO_11
*Elastic, type=ENGINEERING CONSTANTS
 2.99466e+09, 1.49733e+09, 1.49733e+09,         0.3,         0.3,         0.3, 1.15179e+09, 1.15179e+09
 5.75896e+08,
*Material, name=MAT_ANISO_12
*Elastic, type=ENGINEERING CONSTANTS
 2.59867e+09, 1.29934e+09, 1.29934e+09,         0.3,         0.3,         0.3,  9.9949e+08,  9.9949e+08
 4.99745e+08,
*Material, name=MAT_ANISO_13
*Elastic, type=ENGINEERING CONSTANTS
 2.2368e+09,  1.1184e+09,  1.1184e+09,         0.3,         0.3,         0.3, 8.60306e+08, 8.60306e+08
 4.30153e+08,
*Material, name=MAT_ANISO_14
*Elastic, type=ENGINEERING CONSTANTS
 1.90903e+09, 9.54513e+08, 9.54513e+08,         0.3,         0.3,         0.3, 7.34241e+08, 7.34241e+08
  3.6712e+08,
*Material, name=MAT_ANISO_15
*Elastic, type=ENGINEERING CONSTANTS
 1.61536e+09, 8.07682e+08, 8.07682e+08,         0.3,         0.3,         0.3, 6.21294e+08, 6.21294e+08
 3.10647e+08,
*Material, name=MAT_ANISO_16
*Elastic, type=ENGINEERING CONSTANTS
 1.35581e+09, 6.77905e+08, 6.77905e+08,         0.3,         0.3,         0.3, 5.21466e+08, 5.21466e+08
 2.60733e+08,
*Material, name=MAT_ANISO_17
*Elastic, type=ENGINEERING CONSTANTS
 1.13036e+09, 5.65182e+08, 5.65182e+08,         0.3,         0.3,         0.3, 4.34756e+08, 4.34756e+08
 2.17378e+08,
*Material, name=MAT_ANISO_18
*Elastic, type=ENGINEERING CONSTANTS
 9.39027e+08, 4.69513e+08, 4.69513e+08,         0.3,         0.3,         0.3, 3.61164e+08, 3.61164e+08
 1.80582e+08,
*Material, name=MAT_ANISO_19
*Elastic, type=ENGINEERING CONSTANTS
 7.81797e+08, 3.90898e+08, 3.90898e+08,         0.3,         0.3,         0.3, 3.00691e+08, 3.00691e+08
 1.50345e+08,
** 
** BOUNDARY CONDITIONS
** 
** Name: FIX_BOT Type: Displacement/Rotation
*Boundary
_PickedSet3, 1, 1
_PickedSet3, 2, 2
_PickedSet3, 3, 3
** ----------------------------------------------------------------
** 
** STEP: LOAD
** 
*Step, name=LOAD, nlgeom=NO
*Static
0.1, 1., 1e-05, 1.
** 
** LOADS
** 
** Name: PRESS   Type: Pressure
*Dsload
_PickedSurf4, P, 1e+06
** 
** OUTPUT REQUESTS
** 
*Restart, write, frequency=0
** 
** FIELD OUTPUT: F-Output-1
** 
*Output, field, variable=PRESELECT
** 
** HISTORY OUTPUT: H-Output-1
** 
*Output, history, variable=PRESELECT
*End Step
