*Heading
 Aniso biofilm  beta=0.50  e1=[1.00,0.00,0.00]
** Job name: dh_slit_test Model name: BiofilmAniso3D
** Generated by: Abaqus/CAE 2024
*Preprint, echo=NO, model=NO, history=NO, contact=NO
**
** PARTS
**
*Part, name=Biofilm
*Node
      1,  0.649999976,           1.,           1.
      2,  0.649999976,  0.928571403,           1.
      3,  0.649999976,  0.857142866,           1.
      4,  0.649999976,  0.785714269,           1.
      5,  0.649999976,  0.714285731,           1.
      6,  0.649999976,  0.642857134,           1.
      7,  0.649999976,  0.571428597,           1.
      8,  0.649999976,          0.5,           1.
      9,  0.649999976,  0.428571433,           1.
     10,  0.649999976,  0.357142866,           1.
     11,  0.649999976,  0.285714298,           1.
     12,  0.649999976,  0.214285716,           1.
     13,  0.649999976,  0.142857149,           1.
     14,  0.649999976, 0.0714285746,           1.
     15,  0.649999976,           0.,           1.
     16,  0.649999976,           1.,  0.928571403
     17,  0.649999976,  0.928571403,  0.928571403
     18,  0.649999976,  0.857142866,  0.928571403
     19,  0.649999976,  0.785714269,  0.928571403
     20,  0.649999976,  0.714285731,  0.928571403
** ... 1105 like lines cut
*Element, type=C3D8R
  1,  226,  227,  242,  241,    1,    2,   17,   16
  2,  227,  228,  243,  242,    2,    3,   18,   17
  3,  228,  229,  244,  243,    3,    4,   19,   18
  4,  229,  230,  245,  244,    4,    5,   20,   19
  5,  230,  231,  246,  245,    5,    6,   21,   20
  6,  231,  232,  247,  246,    6,    7,   22,   21
  7,  232,  233,  248,  247,    7,    8,   23,   22
  8,  233,  234,  249,  248,    8,    9,   24,   23
  9,  234,  235,  250,  249,    9,   10,   25,   24
 10,  235,  236,  251,  250,   10,   11,   26,   25
 11,  236,  237,  252,  251,   11,   12,   27,   26
 12,  237,  238,  253,  252,   12,   13,   28,   27
 13,  238,  239,  254,  253,   13,   14,   29,   28
 14,  239,  240,  255,  254,   14,   15,   30,   29
 15,  241,  242,  257,  256,   16,   17,   32,   31
 16,  242,  243,  258,  257,   17,   18,   33,   32
 17,  243,  244,  259,  258,   18,   19,   34,   33
 18,  244,  245,  260,  259,   19,   20,   35,   34
 19,  245,  246,  261,  260,   20,   21,   36,   35
 20,  246,  247,  262,  261,   21,   22,   37,   36
** ... 764 like lines cut
*Elset, elset=_PickedSet4, internal
  96, 286, 373, 624, 755, 782
*Elset, elset=_PickedSet5, internal
  74,  75,  90, 154, 181, 188, 192, 194, 230, 247, 261, 329, 353, 377, 380, 400
 412, 414, 483, 512, 535, 598, 637, 651, 687, 704, 705
*Elset, elset=_PickedSet6, internal
  11,  23,  29,  42,  79,  82,  88,  89, 101, 133, 138, 139, 141, 150, 153, 171
 176, 179, 180, 191, 202, 210, 211, 216, 232, 275, 290, 304, 311, 315, 319, 345
 368, 369, 384, 387, 389, 390, 391, 421, 428, 440, 454, 476, 486, 490, 498, 500
 520, 528, 529, 536, 537, 545, 548, 549, 568, 685, 688, 703, 706, 770, 776, 778
*Elset, elset=_PickedSet7, internal
  10,  15,  21,  40,  43,  45,  50,  57,  59,  64,  72,  76,  91, 102, 103, 105
 108, 115, 121, 124, 126, 142, 144, 145, 147, 151, 155, 163, 165, 168, 169, 183
 193, 195, 205, 206, 207, 217, 225, 226, 236, 237, 242, 243, 246, 251, 256, 257
 260, 265, 269, 280, 282, 298, 299, 307, 324, 325, 332, 342, 351, 356, 371, 372
 395, 396, 397, 402, 405, 406, 413, 416, 427, 443, 445, 457, 459, 465, 478, 494
 495, 496, 502, 504, 508, 509, 510, 516, 521, 533, 540, 541, 544, 553, 559, 569
 571, 577, 586, 588, 590, 601, 602, 608, 620, 621, 634, 635, 648, 649, 665, 675
 690, 691, 712, 713, 716, 730, 741, 742, 744, 750, 751, 756, 763, 765, 766, 780
 781,
*Elset, elset=_PickedSet8, internal
   2,   3,   6,   9,  17,  24,  25,  30,  36,  41,  44,  49,  51,  55,  56,  58
  63,  65,  69,  70,  71,  83,  84,  92,  98, 106, 111, 116, 117, 120, 146, 148
 152, 156, 157, 158, 159, 174, 175, 177, 178, 184, 200, 201, 227, 231, 241, 244
 255, 258, 268, 276, 278, 279, 281, 294, 295, 302, 303, 306, 309, 310, 316, 320
 326, 327, 334, 338, 347, 349, 352, 354, 355, 359, 365, 366, 367, 370, 409, 415
 422, 430, 436, 437, 438, 439, 450, 451, 452, 453, 468, 472, 474, 479, 485, 488
 492, 503, 522, 523, 524, 525, 527, 532, 538, 539, 547, 572, 587, 589, 609, 611
 617, 618, 619, 623, 644, 658, 661, 662, 663, 679, 697, 698, 700, 701, 711, 717
 722, 724, 727, 731, 734, 736, 740, 748, 752, 754, 757, 762, 772, 777
*Elset, elset=_PickedSet9, internal
  12,  13,  18,  19,  27,  31,  39,  53,  67,  77,  78,  87,  93,  97, 104, 107
 112, 114, 128, 129, 134, 136, 137, 140, 143, 167, 186, 187, 189, 209, 222, 234
 238, 252, 266, 267, 272, 288, 289, 291, 292, 308, 314, 317, 321, 330, 331, 335
 336, 339, 343, 344, 346, 361, 362, 363, 379, 381, 385, 386, 398, 399, 404, 408
 418, 426, 429, 431, 435, 444, 446, 447, 449, 458, 460, 461, 471, 491, 507, 526
 531, 542, 561, 562, 563, 567, 575, 591, 594, 613, 614, 626, 631, 645, 660, 668
 671, 673, 674, 678, 680, 684, 694, 696, 699, 702, 710, 728, 729, 732, 733, 738
 739, 743, 746, 747, 784
*Elset, elset=_PickedSet10, internal
   7,  16,  20,  26,  28,  35,  52,  54,  66,  68,  73,  80,  81,  94,  95,  99
 119, 122, 123, 132, 135, 160, 161, 162, 172, 173, 185, 196, 198, 199, 213, 214
 215, 219, 220, 221, 224, 228, 229, 233, 248, 249, 250, 262, 263, 264, 270, 271
 293, 300, 312, 313, 322, 323, 328, 333, 340, 341, 358, 364, 375, 376, 392, 394
 403, 419, 420, 424, 425, 433, 434, 442, 456, 463, 466, 467, 475, 487, 505, 506
 519, 546, 550, 551, 552, 558, 560, 566, 570, 573, 578, 579, 604, 606, 607, 616
 640, 654, 664, 666, 676, 677, 689, 693, 695, 709, 714, 721, 726, 753, 758, 759
 767, 771, 783
*Elset, elset=_PickedSet11, internal
   1,   4,   5,   8,  34,  37,  48,  62,  86, 113, 125, 149, 164, 166, 197, 218
 277, 284, 285, 301, 305, 318, 350, 378, 393, 401, 417, 423, 441, 448, 455, 462
 469, 477, 493, 518, 574, 576, 580, 584, 595, 597, 600, 603, 610, 615, 625, 627
 628, 630, 636, 639, 643, 650, 653, 657, 686, 692, 707, 718, 719, 723, 749, 764
 768, 773, 774, 775, 779
*Elset, elset=_PickedSet12, internal
  46,  47,  60,  61, 100, 109, 127, 170, 190, 223, 245, 259, 273, 296, 297, 348
 357, 388, 432, 473, 480, 481, 484, 497, 501, 530, 534, 554, 555, 556, 564, 565
 581, 585, 592, 593, 605, 622, 633, 641, 642, 647, 655, 656, 659, 672, 683, 720
 725, 735, 745
*Elset, elset=_PickedSet13, internal
  85, 110, 130, 131, 182, 203, 212, 239, 240, 253, 254, 283, 287, 337, 360, 407
 410, 411, 464, 470, 482, 489, 511, 513, 514, 515, 543, 582, 583, 612, 667, 670
 681, 715, 737, 760, 761
*Elset, elset=_PickedSet14, internal
  38, 204, 208, 274, 374, 382, 383, 499, 599, 629, 638, 652
*Elset, elset=_PickedSet15, internal
  32,  33, 118, 557, 632, 646, 669, 708, 769
*Elset, elset=_PickedSet16, internal
  22, 596, 682
*Elset, elset=_PickedSet17, internal
  14, 235
*Elset, elset=_PickedSet18, internal
 517,
*Orientation, name=Ori-1
          1.,           0.,           0.,           0.,           0.,           1.
1, 0.
** Section: SEC_ANISO_09
*Solid Section, elset=_PickedSet11, orientation=Ori-1, material=MAT_ANISO_09
,
** Section: SEC_ANISO_06
*Solid Section, elset=_PickedSet8, orientation=Ori-1, material=MAT_ANISO_06
,
** Section: SEC_ANISO_08
*Solid Section, elset=_PickedSet10, orientation=Ori-1, material=MAT_ANISO_08
,
** Section: SEC_ANISO_05
*Solid Section, elset=_PickedSet7, orientation=Ori-1, material=MAT_ANISO_05
,
** Section: SEC_ANISO_04
*Solid Section, elset=_PickedSet6, orientation=Ori-1, material=MAT_ANISO_04
,
** Section: SEC_ANISO_07
*Solid Section, elset=_PickedSet9, orientation=Ori-1, material=MAT_ANISO_07
,
** Section: SEC_ANISO_15
*Solid Section, elset=_PickedSet17, orientation=Ori-1, material=MAT_ANISO_15
,
** Section: SEC_ANISO_14
*Solid Section, elset=_PickedSet16, orientation=Ori-1, material=MAT_ANISO_14
,
** Section: SEC_ANISO_13
*Solid Section, elset=_PickedSet15, orientation=Ori-1, material=MAT_ANISO_13
,
** Section: SEC_ANISO_12
*Solid Section, elset=_PickedSet14, orientation=Ori-1, material=MAT_ANISO_12
,
** Section: SEC_ANISO_10
*Solid Section, elset=_PickedSet12, orientation=Ori-1, material=MAT_ANISO_10
,
** Section: SEC_ANISO_03
*Solid Section, elset=_PickedSet5, orientation=Ori-1, material=MAT_ANISO_03
,
** Section: SEC_ANISO_11
*Solid Section, elset=_PickedSet13, orientation=Ori-1, material=MAT_ANISO_11
,
** Section: SEC_ANISO_02
*Solid Section, elset=_PickedSet4, orientation=Ori-1, material=MAT_ANISO_02
,
** Section: SEC_ANISO_16
*Solid Section, elset=_PickedSet18, orientation=Ori-1, material=MAT_ANISO_16
,
*End Part
**  
**
** ASSEMBLY
**
*Assembly, name=Assembly
**  
*Instance, name=BioInst, part=Biofilm
*End Instance
**  
*Nset, nset=_PickedSet3, internal, instance=BioInst
  211,  212,  213,  214,  215,  216,  217,  218,  219,  220,  221,  222,  223,  224,  225,  436
  437,  438,  439,  440,  441,  442,  443,  444,  445,  446,  447,  448,  449,  450,  661,  662
  663,  664,  665,  666,  667,  668,  669,  670,  671,  672,  673,  674,  675,  886,  887,  888
  889,  890,  891,  892,  893,  894,  895,  896,  897,  898,  899,  900, 1111, 1112, 1113, 1114
 1115, 1116, 1117, 1118, 1119, 1120, 1121, 1122, 1123, 1124, 1125
*Elset, elset=_PickedSet3, internal, instance=BioInst
 183, 184, 185, 186, 187, 188, 189, 190, 191, 192, 193, 194, 195, 196, 379, 380
 381, 382, 383, 384, 385, 386, 387, 388, 389, 390, 391, 392, 575, 576, 577, 578
 579, 580, 581, 582, 583, 584, 585, 586, 587, 588, 771, 772, 773, 774, 775, 776
 777, 778, 779, 780, 781, 782, 783, 784
*Elset, elset=__PickedSurf4_S3, internal, instance=BioInst
   1,   2,   3,   4,   5,   6,   7,   8,   9,  10,  11,  12,  13,  14, 197, 198
 199, 200, 201, 202, 203, 204, 205, 206, 207, 208, 209, 210, 393, 394, 395, 396
 397, 398, 399, 400, 401, 402, 403, 404, 405, 406, 589, 590, 591, 592, 593, 594
 595, 596, 597, 598, 599, 600, 601, 602
*Surface, type=ELEMENT, name=_PickedSurf4, internal
__PickedSurf4_S3, S3
*End Assembly
** 
** MATERIALS
** 
*Material, name=MAT_ANISO_00
*Elastic, type=ENGINEERING CONSTANTS
 9.60162e+09, 4.80081e+09, 4.80081e+09,         0.3,         0.3,         0.3, 3.69293e+09, 3.69293e+09
 1.84647e+09,
*Material, name=MAT_ANISO_01
*Elastic, type=ENGINEERING CONSTANTS
 8.83045e+09, 4.41523e+09, 4.41523e+09,         0.3,         0.3,         0.3, 3.39633e+09, 3.39633e+09
 1.69816e+09,
*Material, name=MAT_ANISO_02
*Elastic, type=ENGINEERING CONSTANTS
 8.09339e+09, 4.04669e+09, 4.04669e+09,         0.3,         0.3,         0.3, 3.11284e+09, 3.11284e+09
 1.55642e+09,
*Material, name=MAT_ANISO_03
*Elastic, type=ENGINEERING CONSTANTS
 7.39043e+09, 3.69521e+09, 3.69521e+09,         0.3,         0.3,         0.3, 2.84247e+09, 2.84247e+09
 1.42124e+09,
*Material, name=MAT_ANISO_04
*Elastic, type=ENGINEERING CONSTANTS
 6.72158e+09, 3.36079e+09, 3.36079e+09,         0.3,         0.3,         0.3, 2.58522e+09, 2.58522e+09
 1.29261e+09,
*Material, name=MAT_ANISO_05
*Elastic, type=ENGINEERING CONSTANTS
 6.08684e+09, 3.04342e+09, 3.04342e+09,         0.3,         0.3,         0.3, 2.34109e+09, 2.34109e+09
 1.17055e+09,
*Material, name=MAT_ANISO_06
*Elastic, type=ENGINEERING CONSTANTS
 5.48621e+09,  2.7431e+09,  2.7431e+09,         0.3,         0.3,         0.3, 2.11008e+09, 2.11008e+09
 1.05504e+09,
*Material, name=MAT_ANISO_07
*Elastic, type=ENGINEERING CONSTANTS
 4.91968e+09, 2.45984e+09, 2.45984e+09,         0.3,         0.3,         0.3, 1.89218e+09, 1.89218e+09
 9.46092e+08,
*Material, name=MAT_ANISO_08
*Elastic, type=ENGINEERING CONSTANTS
 4.38726e+09, 2.19363e+09, 2.19363e+09,         0.3,         0.3,         0.3, 1.68741e+09, 1.68741e+09
 8.43704e+08,
*Material, name=MAT_ANISO_09
*Elastic, type=ENGINEERING CONSTANTS
 3.88895e+09, 1.94448e+09, 1.94448e+09,         0.3,         0.3,         0.3, 1.49575e+09, 1.49575e+09
 7.47876e+08,
*Material, name=MAT_ANISO_10
*Elastic, type=ENGINEERING CONSTANTS
 3.42475e+09, 1.71238e+09, 1.71238e+09,         0.3,         0.3,         0.3, 1.31721e+09, 1.31721e+09
 6.58606e+08,
*Material, name=MAT_ANISO_11
*Elastic, type=ENGINEERING CONSTANTS
 2.99466e+09, 1.49733e+09, 1.49733e+09,         0.3,         0.3,         0.3, 1.15179e+09, 1.15179e+09
 5.75896e+08,
*Material, name=MAT_ANISO_12
*Elastic, type=ENGINEERING CONSTANTS
 2.59867e+09, 1.29934e+09, 1.29934e+09,         0.3,         0.3,         0.3,  9.9949e+08,  9.9949e+08
 4.99745e+08,
*Material, name=MAT_ANISO_13
*Elastic, type=ENGINEERING CONSTANTS
 2.2368e+09,  1.1184e+09,  1.1184e+09,         0.3,         0.3,         0.3, 8.60306e+08, 8.60306e+08
 4.30153e+08,
*Material, name=MAT_ANISO_14
*Elastic, type=ENGINEERING CONSTANTS
 1.90903e+09, 9.54513e+08, 9.54513e+08,         0.3,         0.3,         0.3, 7.34241e+08, 7.34241e+08
  3.6712e+08,
*Material, name=MAT_ANISO_15
*Elastic, type=ENGINEERING CONSTANTS
 1.61536e+09, 8.07682e+08, 8.07682e+08,         0.3,         0.3,         0.3, 6.21294e+08, 6.21294e+08
 3.10647e+08,
*Material, name=MAT_ANISO_16
*Elastic, type=ENGINEERING CONSTANTS
 1.35581e+09, 6.77905e+08, 6.77905e+08,         0.3,         0.3,         0.3, 5.21466e+08, 5.21466e+08
 2.60733e+08,
*Material, name=MAT_ANISO_17
*Elastic, type=ENGINEERING CONSTANTS
 1.13036e+09, 5.65182e+08, 5.65182e+08,         0.3,         0.3,         0.3, 4.34756e+08, 4.34756e+08
 2.17378e+08,
*Material, name=MAT_ANISO_18
*Elastic, type=ENGINEERING CONSTANTS
 9.39027e+08, 4.69513e+08, 4.69513e+08,         0.3,         0.3,         0.3, 3.61164e+08, 3.61164e+08
 1.80582e+08,
*Material, name=MAT_ANISO_19
*Elastic, type=ENGINEERING CONSTANTS
 7.81797e+08, 3.90898e+08, 3.90898e+08,         0.3,         0.3,         0.3, 3.00691e+08, 3.00691e+08
 1.50345e+08,
** 
** BOUNDARY CONDITIONS
** 
** Name: FIX_BOT Type: Displacement/Rotation
*Boundary
_PickedSet3, 1, 1
_PickedSet3, 2, 2
_PickedSet3, 3, 3
** ----------------------------------------------------------------
** 
** STEP: LOAD
** 
*Step, name=LOAD, nlgeom=NO
*Static
0.1, 1., 1e-05, 1.
** 
** LOADS
** 
** Name: PRESS   Type: Pressure
*Dsload
_PickedSurf4, P, 1e+06
** 
** OUTPUT REQUESTS
** 
*Restart, write, frequency=0
** 
** FIELD OUTPUT: F-Output-1
** 
*Output, field, variable=PRESELECT
** 
** HISTORY OUTPUT: H-Output-1
** 
*Output, history, variable=PRESELECT
*End Step
