*Heading
 Aniso biofilm  beta=0.50  e1=[1.00,0.00,0.00]
** Job name: dh_slit_shape Model name: BiofilmAniso3D
** Generated by: Abaqus/CAE 2024
*Preprint, echo=NO, model=NO, history=NO, contact=NO
**
** PARTS
**
*Part, name=Biofilm
*Node
      1,           0.,  0.899999976,           0.
      2,           0.,           0.,           0.
      3,  0.300000012,  0.949999988,           0.
      4,          0.5,  0.800000012,           0.
      5,  0.699999988,  0.949999988,           0.
      6,           1.,  0.899999976,           0.
      7,           1.,           0.,           0.
      8,           0.,  0.830769241,           0.
      9,           0.,  0.761538446,           0.
     10,           0.,  0.692307711,           0.
     11,           0.,  0.623076916,           0.
     12,           0.,   0.55384618,           0.
     13,           0.,  0.484615386,           0.
     14,           0.,   0.41538462,           0.
     15,           0.,  0.346153855,           0.
     16,           0.,   0.27692309,           0.
     17,           0.,   0.20769231,           0.
     18,           0.,  0.138461545,           0.
     19,           0., 0.0692307726,           0.
     20,  0.224999994,       0.9375,           0.
** ... 3235 like lines cut
*Element, type=C3D8R
   1,   66,   18,   19,   55,  283,  235,  236,  272
   2,   56,   72,    5,   25,  273,  289,  222,  242
   3,   25,   26,   57,   56,  242,  243,  274,  273
   4,  124,    4,   23,   70,  341,  221,  240,  287
   5,   88,   87,   47,   48,  305,  304,  264,  265
   6,    8,   94,   22,    1,  225,  311,  239,  218
   7,  142,   69,   94,   93,  359,  286,  311,  310
   8,   94,    8,    9,   93,  311,  225,  226,  310
   9,   11,   59,   58,   10,  228,  276,  275,  227
  10,   59,   11,   12,   60,  276,  228,  229,  277
  11,   60,   12,   13,   61,  277,  229,  230,  278
  12,  106,   96,  133,  134,  323,  313,  350,  351
  13,   61,   13,   14,   62,  278,  230,  231,  279
  14,   62,   14,   15,   63,  279,  231,  232,  280
  15,  102,   95,   63,   64,  319,  312,  280,  281
  16,   43,  144,   55,   42,  260,  361,  272,  259
  17,   71,   24,    3,   67,  288,  241,  220,  284
  18,    3,   20,   68,   67,  220,  237,  285,  284
  19,   20,   21,   69,   68,  237,  238,  286,  285
  20,  137,  120,  142,  100,  354,  337,  359,  317
** ... 2626 like lines cut
*Elset, elset=_PickedSet4, internal
  369,  377,  477, 1424, 1512, 2243, 2246
*Elset, elset=_PickedSet5, internal
  101,  169,  233,  430,  571,  637,  744,  935, 1131, 1501, 1685, 1881, 1889, 2070, 2078, 2268
 2453, 2454, 2643
*Elset, elset=_PickedSet6, internal
   71,  126,  153,  164,  180,  188,  189,  289,  290,  302,  340,  348,  375,  382,  449,  609
  611,  639,  669,  682,  747,  750,  755,  800,  857,  880,  885,  913,  925,  940,  997, 1000
 1098, 1124, 1176, 1196, 1247, 1263, 1284, 1290, 1291, 1303, 1318, 1320, 1328, 1422, 1452, 1473
 1479, 1480, 1496, 1507, 1517, 1583, 1613, 1692, 1700, 1772, 1886, 1961, 2075, 2149, 2260, 2265
 2266, 2370, 2457, 2608, 2624, 2626, 2646
*Elset, elset=_PickedSet7, internal
    4,    5,   44,  132,  151,  167,  177,  231,  260,  291,  313,  356,  365,  368,  370,  440
  448,  450,  478,  529,  542,  554,  555,  556,  565,  567,  570,  629,  666,  667,  699,  718
  740,  753,  756,  760,  808,  818,  906,  912,  943, 1015, 1016, 1044, 1046, 1058, 1060, 1077
 1114, 1130, 1139, 1249, 1266, 1293, 1301, 1307, 1311, 1319, 1378, 1515, 1516, 1564, 1814, 1825
 1860, 1870, 1882, 2003, 2014, 2049, 2059, 2071, 2180, 2205, 2257, 2397, 2425, 2446, 2447, 2452
 2461, 2462, 2519, 2529, 2556, 2557, 2572, 2586, 2607, 2610, 2613, 2614, 2634, 2637, 2641, 2645
*Elset, elset=_PickedSet8, internal
    3,   62,   72,  187,  241,  321,  358,  378,  381,  491,  537,  551,  558,  566,  622,  668
  720,  731,  734,  745,  752,  761,  811,  827,  855,  871,  882,  915,  920,  934,  941, 1071
 1118, 1126, 1178, 1206, 1234, 1260, 1314, 1315, 1321, 1322, 1327, 1393, 1425, 1455, 1492, 1556
 1567, 1582, 1638, 1641, 1644, 1662, 1668, 1669, 1696, 1697, 1699, 1704, 1705, 1745, 1753, 1771
 1801, 1803, 1816, 1868, 1878, 1890, 1893, 1894, 1934, 1942, 1960, 1990, 1992, 2005, 2057, 2067
 2079, 2082, 2123, 2131, 2134, 2141, 2208, 2236, 2258, 2262, 2263, 2272, 2381, 2419, 2444, 2451
 2460, 2499, 2559, 2570, 2616
*Elset, elset=_PickedSet9, internal
   52,  100,  102,  173,  179,  181,  193,  366,  367,  372,  422,  504,  531,  619,  638,  680
  696,  717,  723,  724,  736,  746,  748,  751,  759,  826,  828,  856,  869,  907,  923,  936
  937,  942,  944,  948,  949,  987, 1007, 1047, 1112, 1122, 1125, 1132, 1133, 1134, 1204, 1233
 1236, 1298, 1367, 1385, 1394, 1436, 1449, 1476, 1487, 1490, 1500, 1503, 1504, 1506, 1510, 1511
 1574, 1611, 1679, 1681, 1701, 1773, 1830, 1833, 1852, 1858, 1885, 1962, 2019, 2022, 2041, 2047
 2074, 2121, 2192, 2203, 2229, 2230, 2235, 2264, 2312, 2394, 2400, 2437, 2441, 2455, 2501, 2512
 2528, 2558, 2589, 2635, 2642
*Elset, elset=_PickedSet10, internal
   70,   99,  113,  115,  244,  251,  261,  315,  318,  342,  346,  362,  373,  374,  383,  493
  510,  559,  561,  563,  572,  726,  909,  939,  945, 1045, 1096, 1104, 1121, 1128, 1189, 1205
 1310, 1317, 1323, 1365, 1447, 1474, 1584, 1614, 1625, 1627, 1663, 1671, 1676, 1802, 1827, 1851
 1854, 1857, 1887, 1991, 2016, 2040, 2043, 2046, 2076, 2084, 2151, 2194, 2238, 2256, 2259, 2267
 2271, 2273, 2320, 2330, 2338, 2340, 2368, 2369, 2418, 2421, 2424, 2427, 2435, 2448, 2456, 2509
 2581, 2644
*Elset, elset=_PickedSet11, internal
   55,  129,  157,  176,  183,  184,  185,  194,  353,  420,  479,  545,  754,  858,  932,  950
  989, 1095, 1101, 1138, 1287, 1313, 1326, 1423, 1482, 1554, 1665, 1689, 1690, 1695, 1706, 1743
 1800, 1877, 1879, 1888, 1895, 1932, 1989, 2066, 2068, 2077, 2083, 2150, 2179, 2248, 2255, 2367
 2392, 2432, 2445, 2449, 2630, 2633, 2640
*Elset, elset=_PickedSet12, internal
  124,  150,  156,  178,  192,  304,  433,  507,  535,  547,  557,  562,  564,  693,  798,  888
  933, 1137, 1186, 1258, 1285, 1312, 1438, 1509, 1612, 1636, 1691, 1756, 1874, 1880, 1945, 2063
 2069, 2211, 2310, 2323, 2339
*Elset, elset=_PickedSet13, internal
  186,  259,  480,  528,  534,  691,  743,  929, 1069, 1074, 1102, 1123, 1129, 1235, 1375, 1395
 1499, 1502, 1508, 1688, 1698, 1884, 2073, 2383, 2636
*Elset, elset=_PickedSet14, internal
  159,  339,  345, 1693, 1865, 2054, 2178, 2583, 2638
*Elset, elset=_PickedSet15, internal
   42,  288,  502, 1109, 1763, 1952, 2181, 2252
*Elset, elset=_PickedSet16, internal
  376, 2621
*Elset, elset=_PickedSet17, internal
 2232, 2527
*Elset, elset=_PickedSet18, internal
 1017,
*Elset, elset=_PickedSet19, internal
    1,    2,    6,    7,    8,    9,   10,   11,   12,   13,   14,   15,   16,   17,   18,   19
   20,   21,   22,   23,   24,   25,   26,   27,   28,   29,   30,   31,   32,   33,   34,   35
   36,   37,   38,   39,   40,   41,   43,   45,   46,   47,   48,   49,   50,   51,   53,   54
   56,   57,   58,   59,   60,   61,   63,   64,   65,   66,   67,   68,   69,   73,   74,   75
   76,   77,   78,   79,   80,   81,   82,   83,   84,   85,   86,   87,   88,   89,   90,   91
   92,   93,   94,   95,   96,   97,   98,  103,  104,  105,  106,  107,  108,  109,  110,  111
  112,  114,  116,  117,  118,  119,  120,  121,  122,  123,  125,  127,  128,  130,  131,  133
  134,  135,  136,  137,  138,  139,  140,  141,  142,  143,  144,  145,  146,  147,  148,  149
  152,  154,  155,  158,  160,  161,  162,  163,  165,  166,  168,  170,  171,  172,  174,  175
  182,  190,  191,  195,  196,  197,  198,  199,  200,  201,  202,  203,  204,  205,  206,  207
  208,  209,  210,  211,  212,  213,  214,  215,  216,  217,  218,  219,  220,  221,  222,  223
  224,  225,  226,  227,  228,  229,  230,  232,  234,  235,  236,  237,  238,  239,  240,  242
  243,  245,  246,  247,  248,  249,  250,  252,  253,  254,  255,  256,  257,  258,  262,  263
  264,  265,  266,  267,  268,  269,  270,  271,  272,  273,  274,  275,  276,  277,  278,  279
  280,  281,  282,  283,  284,  285,  286,  287,  292,  293,  294,  295,  296,  297,  298,  299
  300,  301,  303,  305,  306,  307,  308,  309,  310,  311,  312,  314,  316,  317,  319,  320
  322,  323,  324,  325,  326,  327,  328,  329,  330,  331,  332,  333,  334,  335,  336,  337
  338,  341,  343,  344,  347,  349,  350,  351,  352,  354,  355,  357,  359,  360,  361,  363
  364,  371,  379,  380,  384,  385,  386,  387,  388,  389,  390,  391,  392,  393,  394,  395
  396,  397,  398,  399,  400,  401,  402,  403,  404,  405,  406,  407,  408,  409,  410,  411
** ... 107 like lines cut
*Orientation, name=Ori-1
          1.,           0.,           0.,           0.,           0.,           1.
1, 0.
** Section: SEC_TOOTH
*Solid Section, elset=_PickedSet19, orientation=Ori-1, material=MAT_TOOTH
,
** Section: SEC_ANISO_06
*Solid Section, elset=_PickedSet8, orientation=Ori-1, material=MAT_ANISO_06
,
** Section: SEC_ANISO_05
*Solid Section, elset=_PickedSet7, orientation=Ori-1, material=MAT_ANISO_05
,
** Section: SEC_ANISO_13
*Solid Section, elset=_PickedSet15, orientation=Ori-1, material=MAT_ANISO_13
,
** Section: SEC_ANISO_07
*Solid Section, elset=_PickedSet9, orientation=Ori-1, material=MAT_ANISO_07
,
** Section: SEC_ANISO_09
*Solid Section, elset=_PickedSet11, orientation=Ori-1, material=MAT_ANISO_09
,
** Section: SEC_ANISO_08
*Solid Section, elset=_PickedSet10, orientation=Ori-1, material=MAT_ANISO_08
,
** Section: SEC_ANISO_04
*Solid Section, elset=_PickedSet6, orientation=Ori-1, material=MAT_ANISO_04
,
** Section: SEC_ANISO_03
*Solid Section, elset=_PickedSet5, orientation=Ori-1, material=MAT_ANISO_03
,
** Section: SEC_ANISO_10
*Solid Section, elset=_PickedSet12, orientation=Ori-1, material=MAT_ANISO_10
,
** Section: SEC_ANISO_12
*Solid Section, elset=_PickedSet14, orientation=Ori-1, material=MAT_ANISO_12
,
** Section: SEC_ANISO_11
*Solid Section, elset=_PickedSet13, orientation=Ori-1, material=MAT_ANISO_11
,
** Section: SEC_ANISO_02
*Solid Section, elset=_PickedSet4, orientation=Ori-1, material=MAT_ANISO_02
,
** Section: SEC_ANISO_14
*Solid Section, elset=_PickedSet16, orientation=Ori-1, material=MAT_ANISO_14
,
** Section: SEC_ANISO_16
*Solid Section, elset=_PickedSet18, orientation=Ori-1, material=MAT_ANISO_16
,
** Section: SEC_ANISO_15
*Solid Section, elset=_PickedSet17, orientation=Ori-1, material=MAT_ANISO_15
,
*End Part
**  
**
** ASSEMBLY
**
*Assembly, name=Assembly
**  
*Instance, name=BioInst, part=Biofilm
*End Instance
**  
*Nset, nset=_PickedSet3, internal, instance=BioInst, generate
   1,  217,    1
*Elset, elset=_PickedSet3, internal, instance=BioInst, generate
   1,  189,    1
*Elset, elset=__PickedSurf4_S2, internal, instance=BioInst, generate
 2458,  2646,     1
*Surface, type=ELEMENT, name=_PickedSurf4, internal
__PickedSurf4_S2, S2
*End Assembly
** 
** MATERIALS
** 
*Material, name=MAT_ANISO_00
*Elastic, type=ENGINEERING CONSTANTS
 9.60162e+09, 4.80081e+09, 4.80081e+09,         0.3,         0.3,         0.3, 3.69293e+09, 3.69293e+09
 1.84647e+09,
*Material, name=MAT_ANISO_01
*Elastic, type=ENGINEERING CONSTANTS
 8.83045e+09, 4.41523e+09, 4.41523e+09,         0.3,         0.3,         0.3, 3.39633e+09, 3.39633e+09
 1.69816e+09,
*Material, name=MAT_ANISO_02
*Elastic, type=ENGINEERING CONSTANTS
 8.09339e+09, 4.04669e+09, 4.04669e+09,         0.3,         0.3,         0.3, 3.11284e+09, 3.11284e+09
 1.55642e+09,
*Material, name=MAT_ANISO_03
*Elastic, type=ENGINEERING CONSTANTS
 7.39043e+09, 3.69521e+09, 3.69521e+09,         0.3,         0.3,         0.3, 2.84247e+09, 2.84247e+09
 1.42124e+09,
*Material, name=MAT_ANISO_04
*Elastic, type=ENGINEERING CONSTANTS
 6.72158e+09, 3.36079e+09, 3.36079e+09,         0.3,         0.3,         0.3, 2.58522e+09, 2.58522e+09
 1.29261e+09,
*Material, name=MAT_ANISO_05
*Elastic, type=ENGINEERING CONSTANTS
 6.08684e+09, 3.04342e+09, 3.04342e+09,         0.3,         0.3,         0.3, 2.34109e+09, 2.34109e+09
 1.17055e+09,
*Material, name=MAT_ANISO_06
*Elastic, type=ENGINEERING CONSTANTS
 5.48621e+09,  2.7431e+09,  2.7431e+09,         0.3,         0.3,         0.3, 2.11008e+09, 2.11008e+09
 1.05504e+09,
*Material, name=MAT_ANISO_07
*Elastic, type=ENGINEERING CONSTANTS
 4.91968e+09, 2.45984e+09, 2.45984e+09,         0.3,         0.3,         0.3, 1.89218e+09, 1.89218e+09
 9.46092e+08,
*Material, name=MAT_ANISO_08
*Elastic, type=ENGINEERING CONSTANTS
 4.38726e+09, 2.19363e+09, 2.19363e+09,         0.3,         0.3,         0.3, 1.68741e+09, 1.68741e+09
 8.43704e+08,
*Material, name=MAT_ANISO_09
*Elastic, type=ENGINEERING CONSTANTS
 3.88895e+09, 1.94448e+09, 1.94448e+09,         0.3,         0.3,         0.3, 1.49575e+09, 1.49575e+09
 7.47876e+08,
*Material, name=MAT_ANISO_10
*Elastic, type=ENGINEERING CONSTANTS
 3.42475e+09, 1.71238e+09, 1.71238e+09,         0.3,         0.3,         0.3, 1.31721e+09, 1.31721e+09
 6.58606e+08,
*Material, name=MAT_ANISO_11
*Elastic, type=ENGINEERING CONSTANTS
 2.99466e+09, 1.49733e+09, 1.49733e+09,         0.3,         0.3,         0.3, 1.15179e+09, 1.15179e+09
 5.75896e+08,
*Material, name=MAT_ANISO_12
*Elastic, type=ENGINEERING CONSTANTS
 2.59867e+09, 1.29934e+09, 1.29934e+09,         0.3,         0.3,         0.3,  9.9949e+08,  9.9949e+08
 4.99745e+08,
*Material, name=MAT_ANISO_13
*Elastic, type=ENGINEERING CONSTANTS
 2.2368e+09,  1.1184e+09,  1.1184e+09,         0.3,         0.3,         0.3, 8.60306e+08, 8.60306e+08
 4.30153e+08,
*Material, name=MAT_ANISO_14
*Elastic, type=ENGINEERING CONSTANTS
 1.90903e+09, 9.54513e+08, 9.54513e+08,         0.3,         0.3,         0.3, 7.34241e+08, 7.34241e+08
  3.6712e+08,
*Material, name=MAT_ANISO_15
*Elastic, type=ENGINEERING CONSTANTS
 1.61536e+09, 8.07682e+08, 8.07682e+08,         0.3,         0.3,         0.3, 6.21294e+08, 6.21294e+08
 3.10647e+08,
*Material, name=MAT_ANISO_16
*Elastic, type=ENGINEERING CONSTANTS
 1.35581e+09, 6.77905e+08, 6.77905e+08,         0.3,         0.3,         0.3, 5.21466e+08, 5.21466e+08
 2.60733e+08,
*Material, name=MAT_ANISO_17
*Elastic, type=ENGINEERING CONSTANTS
 1.13036e+09, 5.65182e+08, 5.65182e+08,         0.3,         0.3,         0.3, 4.34756e+08, 4.34756e+08
 2.17378e+08,
*Material, name=MAT_ANISO_18
*Elastic, type=ENGINEERING CONSTANTS
 9.39027e+08, 4.69513e+08, 4.69513e+08,         0.3,         0.3,         0.3, 3.61164e+08, 3.61164e+08
 1.80582e+08,
*Material, name=MAT_ANISO_19
*Elastic, type=ENGINEERING CONSTANTS
 7.81797e+08, 3.90898e+08, 3.90898e+08,         0.3,         0.3,         0.3, 3.00691e+08, 3.00691e+08
 1.50345e+08,
*Material, name=MAT_TOOTH
*Elastic, type=ENGINEERING CONSTANTS
 1e+10,       1e+10,       1e+10,         0.3,         0.3,         0.3, 3.84615e+09, 3.84615e+09
 3.84615e+09,
** 
** BOUNDARY CONDITIONS
** 
** Name: FIX_BOT Type: Displacement/Rotation
*Boundary
_PickedSet3, 1, 1
_PickedSet3, 2, 2
_PickedSet3, 3, 3
** ----------------------------------------------------------------
** 
** STEP: LOAD
** 
*Step, name=LOAD, nlgeom=NO
*Static
0.1, 1., 1e-05, 1.
** 
** LOADS
** 
** Name: PRESS   Type: Pressure
*Dsload
_PickedSurf4, P, 1e+06
** 
** OUTPUT REQUESTS
** 
*Restart, write, frequency=0
** 
** FIELD OUTPUT: F-Output-1
** 
*Output, field, variable=PRESELECT
** 
** HISTORY OUTPUT: H-Output-1
** 
*Output, history, variable=PRESELECT
*End Step
