*Heading
 OpenJaw crown biofilm T23  beta=1.00
** Job name: OJ_Crown_T23_b100 Model name: OpenJawAssembly
** Generated by: Abaqus/CAE 2024
*Preprint, echo=NO, model=NO, history=NO, contact=NO
**
** PARTS
**
*Part, name=CrownBiofilm
*Node
      1,  -70.6643829,  -38.0521278,           0.
      2,  -71.2665634,  -39.4400139,           0.
      3,  -71.2528534,   -41.019928,           0.
      4,  -71.2010422,  -42.5988274,           0.
      5,  -70.8309479,  -44.1154213,           0.
      6,  -69.5658112,  -44.9586716,           0.
      7,  -68.2677689,  -44.4295731,           0.
      8,  -67.7463455,  -42.9458199,           0.
      9,  -67.4506912,  -41.3949547,           0.
     10,  -67.4580078,  -39.8157082,           0.
     11,  -67.8217697,  -38.2972031,           0.
     12,  -69.1651306,  -37.6417732,           0.
     13,  -70.8585587,   -37.614502,           0.
     14,  -71.6079407,  -39.1043282,           0.
     15,  -69.1723633,  -37.1630516,           0.
     16,  -67.6466599,  -37.8516045,           0.
     17,  -67.1296997,  -39.4672356,           0.
     18,  -66.9744186,  -41.3461113,           0.
     19,  -67.4104843,  -43.2870255,           0.
     20,  -68.1333389,  -44.8890877,           0.
** ... 12520 like lines cut
*Element, type=C3D8R
   1,   131,    30,    29,   130,   321,   220,   219,   320
   2,   124,    33,     3,   123,   314,   223,   193,   313
   3,   125,    34,    33,   124,   315,   224,   223,   314
   4,   118,    37,     4,    23,   308,   227,   194,   213
   5,    42,    41,   143,   141,   232,   231,   333,   331
   6,     6,   165,   163,    45,   196,   355,   353,   235
   7,    43,    42,   141,   142,   233,   232,   331,   332
   8,   163,   165,   109,   110,   353,   355,   299,   300
   9,   171,   170,   104,   105,   361,   360,   294,   295
  10,   107,   173,   172,   106,   297,   363,   362,   296
  11,   157,   152,    99,   100,   347,   342,   289,   290
  12,    57,   174,   175,    58,   247,   364,   365,   248
  13,    61,    10,   178,   179,   251,   200,   368,   369
  14,    91,    64,   182,    90,   281,   254,   372,   280
  15,    83,   183,   136,    16,   273,   373,   326,   206
  16,   148,   184,   185,    12,   338,   374,   375,   202
  17,   147,    70,    69,   145,   337,   260,   259,   335
  18,   156,   151,    73,    74,   346,   341,   263,   264
  19,   190,   156,    74,    75,   380,   346,   264,   265
  20,   130,    29,     2,   129,   320,   219,   192,   319
** ... 8040 like lines cut
*Elset, elset=_PickedSet4, internal
   14,   25,   37,   41,   43,   83,   86,  109,  138,  149,  161,  165,  167,  207,  210,  233
  262,  273,  285,  289,  291,  331,  334,  357,  386,  397,  409,  413,  415,  455,  458,  481
  510,  521,  533,  537,  539,  579,  582,  605,  634,  645,  657,  661,  663,  703,  706,  729
  758,  769,  781,  785,  787,  827,  830,  853,  882,  893,  905,  909,  911,  951,  954,  977
 1006, 1017, 1029, 1033, 1035, 1075, 1078, 1101, 1130, 1141, 1153, 1157, 1159, 1199, 1202, 1225
 1254, 1265, 1277, 1281, 1283, 1323, 1326, 1349, 1378, 1389, 1401, 1405, 1407, 1447, 1450, 1473
 1502, 1513, 1525, 1529, 1531, 1571, 1574, 1597, 1626, 1637, 1649, 1653, 1655, 1695, 1698, 1721
 1750, 1761, 1773, 1777, 1779, 1819, 1822, 1845, 1874, 1885, 1897, 1901, 1903, 1943, 1946, 1969
 1998, 2009, 2021, 2025, 2027, 2067, 2070, 2093, 2122, 2133, 2145, 2149, 2151, 2191, 2194, 2217
 2246, 2257, 2269, 2273, 2275, 2315, 2318, 2341, 2370, 2381, 2393, 2397, 2399, 2439, 2442, 2465
 2494, 2505, 2517, 2521, 2523, 2563, 2566, 2589, 2618, 2629, 2641, 2645, 2647, 2687, 2690, 2713
 2742, 2753, 2765, 2769, 2771, 2811, 2814, 2837, 2866, 2877, 2889, 2893, 2895, 2935, 2938, 2961
 2990, 3001, 3013, 3017, 3019, 3059, 3062, 3085, 3114, 3125, 3137, 3141, 3143, 3183, 3186, 3209
 3238, 3249, 3261, 3265, 3267, 3307, 3310, 3333, 3362, 3373, 3385, 3389, 3391, 3431, 3434, 3457
 3486, 3497, 3509, 3513, 3515, 3555, 3558, 3581, 3610, 3621, 3633, 3637, 3639, 3679, 3682, 3705
 3734, 3745, 3757, 3761, 3763, 3803, 3806, 3829, 3858, 3869, 3881, 3885, 3887, 3927, 3930, 3953
 3982, 3993, 4005, 4009, 4011, 4051, 4054, 4077, 4106, 4117, 4129, 4133, 4135, 4175, 4178, 4201
 4230, 4241, 4253, 4257, 4259, 4299, 4302, 4325, 4354, 4365, 4377, 4381, 4383, 4423, 4426, 4449
 4478, 4489, 4501, 4505, 4507, 4547, 4550, 4573, 4602, 4613, 4625, 4629, 4631, 4671, 4674, 4697
 4726, 4737, 4749, 4753, 4755, 4795, 4798, 4821, 4850, 4861, 4873, 4877, 4879, 4919, 4922, 4945
** ... 13 like lines cut
*Elset, elset=_PickedSet5, internal
  113,  115,  237,  239,  361,  363,  485,  487,  609,  611,  733,  735,  857,  859,  981,  983
 1105, 1107, 1229, 1231, 1353, 1355, 1477, 1479, 1601, 1603, 1725, 1727, 1849, 1851, 1973, 1975
 2097, 2099, 2221, 2223, 2345, 2347, 2469, 2471, 2593, 2595, 2717, 2719, 2841, 2843, 2965, 2967
 3089, 3091, 3213, 3215, 3337, 3339, 3461, 3463, 3585, 3587, 3709, 3711, 3833, 3835, 3957, 3959
 4081, 4083, 4205, 4207, 4329, 4331, 4453, 4455, 4577, 4579, 4701, 4703, 4825, 4827, 4949, 4951
 5073, 5075, 5197, 5199, 5321, 5323, 5445, 5447, 5569, 5571, 5693, 5695, 5817, 5819, 5941, 5943
 6065, 6067, 6189, 6191, 6313, 6315, 6437, 6439, 6561, 6563, 6685, 6687, 6809, 6811, 6933, 6935
 7057, 7059, 7181, 7183, 7305, 7307, 7429, 7431, 7553, 7555, 7677, 7679, 7801, 7803, 7925, 7927
 8049, 8051
*Elset, elset=_PickedSet6, internal
    7,   24,   38,   78,   81,   82,  104,  110,  131,  148,  162,  202,  205,  206,  228,  234
  255,  272,  286,  326,  329,  330,  352,  358,  379,  396,  410,  450,  453,  454,  476,  482
  503,  520,  534,  574,  577,  578,  600,  606,  627,  644,  658,  698,  701,  702,  724,  730
  751,  768,  782,  822,  825,  826,  848,  854,  875,  892,  906,  946,  949,  950,  972,  978
  999, 1016, 1030, 1070, 1073, 1074, 1096, 1102, 1123, 1140, 1154, 1194, 1197, 1198, 1220, 1226
 1247, 1264, 1278, 1318, 1321, 1322, 1344, 1350, 1371, 1388, 1402, 1442, 1445, 1446, 1468, 1474
 1495, 1512, 1526, 1566, 1569, 1570, 1592, 1598, 1619, 1636, 1650, 1690, 1693, 1694, 1716, 1722
 1743, 1760, 1774, 1814, 1817, 1818, 1840, 1846, 1867, 1884, 1898, 1938, 1941, 1942, 1964, 1970
 1991, 2008, 2022, 2062, 2065, 2066, 2088, 2094, 2115, 2132, 2146, 2186, 2189, 2190, 2212, 2218
 2239, 2256, 2270, 2310, 2313, 2314, 2336, 2342, 2363, 2380, 2394, 2434, 2437, 2438, 2460, 2466
 2487, 2504, 2518, 2558, 2561, 2562, 2584, 2590, 2611, 2628, 2642, 2682, 2685, 2686, 2708, 2714
 2735, 2752, 2766, 2806, 2809, 2810, 2832, 2838, 2859, 2876, 2890, 2930, 2933, 2934, 2956, 2962
 2983, 3000, 3014, 3054, 3057, 3058, 3080, 3086, 3107, 3124, 3138, 3178, 3181, 3182, 3204, 3210
 3231, 3248, 3262, 3302, 3305, 3306, 3328, 3334, 3355, 3372, 3386, 3426, 3429, 3430, 3452, 3458
 3479, 3496, 3510, 3550, 3553, 3554, 3576, 3582, 3603, 3620, 3634, 3674, 3677, 3678, 3700, 3706
 3727, 3744, 3758, 3798, 3801, 3802, 3824, 3830, 3851, 3868, 3882, 3922, 3925, 3926, 3948, 3954
 3975, 3992, 4006, 4046, 4049, 4050, 4072, 4078, 4099, 4116, 4130, 4170, 4173, 4174, 4196, 4202
 4223, 4240, 4254, 4294, 4297, 4298, 4320, 4326, 4347, 4364, 4378, 4418, 4421, 4422, 4444, 4450
 4471, 4488, 4502, 4542, 4545, 4546, 4568, 4574, 4595, 4612, 4626, 4666, 4669, 4670, 4692, 4698
 4719, 4736, 4750, 4790, 4793, 4794, 4816, 4822, 4843, 4860, 4874, 4914, 4917, 4918, 4940, 4946
** ... 13 like lines cut
*Elset, elset=_PickedSet7, internal
    1,    2,    3,    4,    6,    9,   10,   11,   12,   13,   15,   16,   17,   18,   19,   20
   21,   22,   23,   26,   27,   28,   29,   30,   31,   32,   33,   34,   35,   36,   40,   42
   44,   45,   46,   47,   48,   49,   50,   51,   52,   53,   54,   55,   57,   58,   59,   60
   61,   62,   63,   64,   65,   66,   67,   68,   69,   70,   71,   72,   73,   75,   76,   77
   79,   80,   87,   88,   89,   91,   92,   93,   94,   95,   96,   97,   98,  100,  101,  102
  105,  106,  107,  111,  112,  114,  116,  117,  118,  119,  120,  121,  122,  123,  124,  125
  126,  127,  128,  130,  133,  134,  135,  136,  137,  139,  140,  141,  142,  143,  144,  145
  146,  147,  150,  151,  152,  153,  154,  155,  156,  157,  158,  159,  160,  164,  166,  168
  169,  170,  171,  172,  173,  174,  175,  176,  177,  178,  179,  181,  182,  183,  184,  185
  186,  187,  188,  189,  190,  191,  192,  193,  194,  195,  196,  197,  199,  200,  201,  203
  204,  211,  212,  213,  215,  216,  217,  218,  219,  220,  221,  222,  224,  225,  226,  229
  230,  231,  235,  236,  238,  240,  241,  242,  243,  244,  245,  246,  247,  248,  249,  250
  251,  252,  254,  257,  258,  259,  260,  261,  263,  264,  265,  266,  267,  268,  269,  270
  271,  274,  275,  276,  277,  278,  279,  280,  281,  282,  283,  284,  288,  290,  292,  293
  294,  295,  296,  297,  298,  299,  300,  301,  302,  303,  305,  306,  307,  308,  309,  310
  311,  312,  313,  314,  315,  316,  317,  318,  319,  320,  321,  323,  324,  325,  327,  328
  335,  336,  337,  339,  340,  341,  342,  343,  344,  345,  346,  348,  349,  350,  353,  354
  355,  359,  360,  362,  364,  365,  366,  367,  368,  369,  370,  371,  372,  373,  374,  375
  376,  378,  381,  382,  383,  384,  385,  387,  388,  389,  390,  391,  392,  393,  394,  395
  398,  399,  400,  401,  402,  403,  404,  405,  406,  407,  408,  412,  414,  416,  417,  418
** ... 366 like lines cut
*Elset, elset=_PickedSet8, internal
   39,   56,   84,  163,  180,  208,  287,  304,  332,  411,  428,  456,  535,  552,  580,  659
  676,  704,  783,  800,  828,  907,  924,  952, 1031, 1048, 1076, 1155, 1172, 1200, 1279, 1296
 1324, 1403, 1420, 1448, 1527, 1544, 1572, 1651, 1668, 1696, 1775, 1792, 1820, 1899, 1916, 1944
 2023, 2040, 2068, 2147, 2164, 2192, 2271, 2288, 2316, 2395, 2412, 2440, 2519, 2536, 2564, 2643
 2660, 2688, 2767, 2784, 2812, 2891, 2908, 2936, 3015, 3032, 3060, 3139, 3156, 3184, 3263, 3280
 3308, 3387, 3404, 3432, 3511, 3528, 3556, 3635, 3652, 3680, 3759, 3776, 3804, 3883, 3900, 3928
 4007, 4024, 4052, 4131, 4148, 4176, 4255, 4272, 4300, 4379, 4396, 4424, 4503, 4520, 4548, 4627
 4644, 4672, 4751, 4768, 4796, 4875, 4892, 4920, 4999, 5016, 5044, 5123, 5140, 5168, 5247, 5264
 5292, 5371, 5388, 5416, 5495, 5512, 5540, 5619, 5636, 5664, 5743, 5760, 5788, 5867, 5884, 5912
 5991, 6008, 6036, 6115, 6132, 6160, 6239, 6256, 6284, 6363, 6380, 6408, 6487, 6504, 6532, 6611
 6628, 6656, 6735, 6752, 6780, 6859, 6876, 6904, 6983, 7000, 7028, 7107, 7124, 7152, 7231, 7248
 7276, 7355, 7372, 7400, 7479, 7496, 7524, 7603, 7620, 7648, 7727, 7744, 7772, 7851, 7868, 7896
 7975, 7992, 8020
*Elset, elset=_PickedSet9, internal
    8,   85,   90,   99,  108,  132,  209,  214,  223,  232,  256,  333,  338,  347,  356,  380
  457,  462,  471,  480,  504,  581,  586,  595,  604,  628,  705,  710,  719,  728,  752,  829
  834,  843,  852,  876,  953,  958,  967,  976, 1000, 1077, 1082, 1091, 1100, 1124, 1201, 1206
 1215, 1224, 1248, 1325, 1330, 1339, 1348, 1372, 1449, 1454, 1463, 1472, 1496, 1573, 1578, 1587
 1596, 1620, 1697, 1702, 1711, 1720, 1744, 1821, 1826, 1835, 1844, 1868, 1945, 1950, 1959, 1968
 1992, 2069, 2074, 2083, 2092, 2116, 2193, 2198, 2207, 2216, 2240, 2317, 2322, 2331, 2340, 2364
 2441, 2446, 2455, 2464, 2488, 2565, 2570, 2579, 2588, 2612, 2689, 2694, 2703, 2712, 2736, 2813
 2818, 2827, 2836, 2860, 2937, 2942, 2951, 2960, 2984, 3061, 3066, 3075, 3084, 3108, 3185, 3190
 3199, 3208, 3232, 3309, 3314, 3323, 3332, 3356, 3433, 3438, 3447, 3456, 3480, 3557, 3562, 3571
 3580, 3604, 3681, 3686, 3695, 3704, 3728, 3805, 3810, 3819, 3828, 3852, 3929, 3934, 3943, 3952
 3976, 4053, 4058, 4067, 4076, 4100, 4177, 4182, 4191, 4200, 4224, 4301, 4306, 4315, 4324, 4348
 4425, 4430, 4439, 4448, 4472, 4549, 4554, 4563, 4572, 4596, 4673, 4678, 4687, 4696, 4720, 4797
 4802, 4811, 4820, 4844, 4921, 4926, 4935, 4944, 4968, 5045, 5050, 5059, 5068, 5092, 5169, 5174
 5183, 5192, 5216, 5293, 5298, 5307, 5316, 5340, 5417, 5422, 5431, 5440, 5464, 5541, 5546, 5555
 5564, 5588, 5665, 5670, 5679, 5688, 5712, 5789, 5794, 5803, 5812, 5836, 5913, 5918, 5927, 5936
 5960, 6037, 6042, 6051, 6060, 6084, 6161, 6166, 6175, 6184, 6208, 6285, 6290, 6299, 6308, 6332
 6409, 6414, 6423, 6432, 6456, 6533, 6538, 6547, 6556, 6580, 6657, 6662, 6671, 6680, 6704, 6781
 6786, 6795, 6804, 6828, 6905, 6910, 6919, 6928, 6952, 7029, 7034, 7043, 7052, 7076, 7153, 7158
 7167, 7176, 7200, 7277, 7282, 7291, 7300, 7324, 7401, 7406, 7415, 7424, 7448, 7525, 7530, 7539
 7548, 7572, 7649, 7654, 7663, 7672, 7696, 7773, 7778, 7787, 7796, 7820, 7897, 7902, 7911, 7920
 7944, 8021, 8026, 8035, 8044
*Elset, elset=_PickedSet10, internal
    5,   74,  103,  129,  198,  227,  253,  322,  351,  377,  446,  475,  501,  570,  599,  625
  694,  723,  749,  818,  847,  873,  942,  971,  997, 1066, 1095, 1121, 1190, 1219, 1245, 1314
 1343, 1369, 1438, 1467, 1493, 1562, 1591, 1617, 1686, 1715, 1741, 1810, 1839, 1865, 1934, 1963
 1989, 2058, 2087, 2113, 2182, 2211, 2237, 2306, 2335, 2361, 2430, 2459, 2485, 2554, 2583, 2609
 2678, 2707, 2733, 2802, 2831, 2857, 2926, 2955, 2981, 3050, 3079, 3105, 3174, 3203, 3229, 3298
 3327, 3353, 3422, 3451, 3477, 3546, 3575, 3601, 3670, 3699, 3725, 3794, 3823, 3849, 3918, 3947
 3973, 4042, 4071, 4097, 4166, 4195, 4221, 4290, 4319, 4345, 4414, 4443, 4469, 4538, 4567, 4593
 4662, 4691, 4717, 4786, 4815, 4841, 4910, 4939, 4965, 5034, 5063, 5089, 5158, 5187, 5213, 5282
 5311, 5337, 5406, 5435, 5461, 5530, 5559, 5585, 5654, 5683, 5709, 5778, 5807, 5833, 5902, 5931
 5957, 6026, 6055, 6081, 6150, 6179, 6205, 6274, 6303, 6329, 6398, 6427, 6453, 6522, 6551, 6577
 6646, 6675, 6701, 6770, 6799, 6825, 6894, 6923, 6949, 7018, 7047, 7073, 7142, 7171, 7197, 7266
 7295, 7321, 7390, 7419, 7445, 7514, 7543, 7569, 7638, 7667, 7693, 7762, 7791, 7817, 7886, 7915
 7941, 8010, 8039
*Orientation, name=Ori-1
          1.,           0.,           0.,           0.,           1.,           0.
1, 0.
** Section: SEC_ANISO_08
*Solid Section, elset=_PickedSet7, orientation=Ori-1, material=MAT_ANISO_08
,
** Section: SEC_ANISO_11
*Solid Section, elset=_PickedSet10, orientation=Ori-1, material=MAT_ANISO_11
,
** Section: SEC_ANISO_07
*Solid Section, elset=_PickedSet6, orientation=Ori-1, material=MAT_ANISO_07
,
** Section: SEC_ANISO_10
*Solid Section, elset=_PickedSet9, orientation=Ori-1, material=MAT_ANISO_10
,
** Section: SEC_ANISO_04
*Solid Section, elset=_PickedSet4, orientation=Ori-1, material=MAT_ANISO_04
,
** Section: SEC_ANISO_09
*Solid Section, elset=_PickedSet8, orientation=Ori-1, material=MAT_ANISO_09
,
** Section: SEC_ANISO_05
*Solid Section, elset=_PickedSet5, orientation=Ori-1, material=MAT_ANISO_05
,
*End Part
**
**
** ASSEMBLY
**
*Assembly, name=Assembly
**
*Instance, name=CrownBioInst, part=CrownBiofilm
          0.,           0., 18.5561180114746
*End Instance
**
*Nset, nset=_PickedSet4, internal, instance=CrownBioInst, generate
   1,  190,    1
*Elset, elset=_PickedSet4, internal, instance=CrownBioInst, generate
   1,  124,    1
*Elset, elset=__PickedSurf5_S2, internal, instance=CrownBioInst, generate
 7937,  8060,     1
*Surface, type=ELEMENT, name=_PickedSurf5, internal
__PickedSurf5_S2, S2
*End Assembly
**
** MATERIALS
**
*Material, name=MAT_ANISO_00
*Elastic, type=ENGINEERING CONSTANTS
 9.66586e+09, 9.66586e+09, 9.66586e+09, 0.3, 0.3, 0.3, 3.71764e+09, 3.71764e+09
 3.71764e+09,
*Material, name=MAT_ANISO_01
*Elastic, type=ENGINEERING CONSTANTS
 9.01552e+09, 9.01552e+09, 9.01552e+09, 0.3, 0.3, 0.3, 3.46751e+09, 3.46751e+09
 3.46751e+09,
*Material, name=MAT_ANISO_02
*Elastic, type=ENGINEERING CONSTANTS
 8.38908e+09, 8.38908e+09, 8.38908e+09, 0.3, 0.3, 0.3, 3.22657e+09, 3.22657e+09
 3.22657e+09,
*Material, name=MAT_ANISO_03
*Elastic, type=ENGINEERING CONSTANTS
 7.78656e+09, 7.78656e+09, 7.78656e+09, 0.3, 0.3, 0.3, 2.99483e+09, 2.99483e+09
 2.99483e+09,
*Material, name=MAT_ANISO_04
*Elastic, type=ENGINEERING CONSTANTS
 7.20795e+09, 7.20795e+09, 7.20795e+09, 0.3, 0.3, 0.3, 2.77229e+09, 2.77229e+09
 2.77229e+09,
*Material, name=MAT_ANISO_05
*Elastic, type=ENGINEERING CONSTANTS
 6.65326e+09, 6.65326e+09, 6.65326e+09, 0.3, 0.3, 0.3, 2.55894e+09, 2.55894e+09
 2.55894e+09,
*Material, name=MAT_ANISO_06
*Elastic, type=ENGINEERING CONSTANTS
 6.12247e+09, 6.12247e+09, 6.12247e+09, 0.3, 0.3, 0.3, 2.3548e+09, 2.3548e+09
 2.3548e+09,
*Material, name=MAT_ANISO_07
*Elastic, type=ENGINEERING CONSTANTS
 5.6156e+09, 5.6156e+09, 5.6156e+09, 0.3, 0.3, 0.3, 2.15984e+09, 2.15984e+09
 2.15984e+09,
*Material, name=MAT_ANISO_08
*Elastic, type=ENGINEERING CONSTANTS
 5.13263e+09, 5.13263e+09, 5.13263e+09, 0.3, 0.3, 0.3, 1.97409e+09, 1.97409e+09
 1.97409e+09,
*Material, name=MAT_ANISO_09
*Elastic, type=ENGINEERING CONSTANTS
 4.67358e+09, 4.67358e+09, 4.67358e+09, 0.3, 0.3, 0.3, 1.79753e+09, 1.79753e+09
 1.79753e+09,
*Material, name=MAT_ANISO_10
*Elastic, type=ENGINEERING CONSTANTS
 4.23844e+09, 4.23844e+09, 4.23844e+09, 0.3, 0.3, 0.3, 1.63017e+09, 1.63017e+09
 1.63017e+09,
*Material, name=MAT_ANISO_11
*Elastic, type=ENGINEERING CONSTANTS
 3.82722e+09, 3.82722e+09, 3.82722e+09, 0.3, 0.3, 0.3, 1.47201e+09, 1.47201e+09
 1.47201e+09,
*Material, name=MAT_ANISO_12
*Elastic, type=ENGINEERING CONSTANTS
 3.4399e+09, 3.4399e+09, 3.4399e+09, 0.3, 0.3, 0.3, 1.32304e+09, 1.32304e+09
 1.32304e+09,
*Material, name=MAT_ANISO_13
*Elastic, type=ENGINEERING CONSTANTS
 3.0765e+09, 3.0765e+09, 3.0765e+09, 0.3, 0.3, 0.3, 1.18327e+09, 1.18327e+09
 1.18327e+09,
*Material, name=MAT_ANISO_14
*Elastic, type=ENGINEERING CONSTANTS
 2.737e+09, 2.737e+09, 2.737e+09, 0.3, 0.3, 0.3, 1.05269e+09, 1.05269e+09
 1.05269e+09,
*Material, name=MAT_ANISO_15
*Elastic, type=ENGINEERING CONSTANTS
 2.42142e+09, 2.42142e+09, 2.42142e+09, 0.3, 0.3, 0.3, 9.31316e+08, 9.31316e+08
 9.31316e+08,
*Material, name=MAT_ANISO_16
*Elastic, type=ENGINEERING CONSTANTS
 2.12975e+09, 2.12975e+09, 2.12975e+09, 0.3, 0.3, 0.3, 8.19136e+08, 8.19136e+08
 8.19136e+08,
*Material, name=MAT_ANISO_17
*Elastic, type=ENGINEERING CONSTANTS
 1.862e+09, 1.862e+09, 1.862e+09, 0.3, 0.3, 0.3, 7.16153e+08, 7.16153e+08
 7.16153e+08,
*Material, name=MAT_ANISO_18
*Elastic, type=ENGINEERING CONSTANTS
 1.61815e+09, 1.61815e+09, 1.61815e+09, 0.3, 0.3, 0.3, 6.22366e+08, 6.22366e+08
 6.22366e+08,
*Material, name=MAT_ANISO_19
*Elastic, type=ENGINEERING CONSTANTS
 1.39822e+09, 1.39822e+09, 1.39822e+09, 0.3, 0.3, 0.3, 5.37776e+08, 5.37776e+08
 5.37776e+08,
*Material, name=MAT_TOOTH
*Elastic
 1e+10, 0.3
**
** BOUNDARY CONDITIONS
**
** Name: FIX_CROWN_BOT Type: Displacement/Rotation
*Boundary
_PickedSet4, 1, 1
_PickedSet4, 2, 2
_PickedSet4, 3, 3
** ----------------------------------------------------------------
**
** STEP: LOAD_CROWN
**
*Step, name=LOAD_CROWN, nlgeom=NO
*Static
0.1, 1., 1e-05, 1.
**
** LOADS
**
** Name: PRESS_CROWN   Type: Pressure
*Dsload
_PickedSurf5, P, 1e+06
**
** OUTPUT REQUESTS
**
*Restart, write, frequency=0
**
** FIELD OUTPUT: F-Output-1
**
*Output, field, variable=PRESELECT
**
** HISTORY OUTPUT: H-Output-1
**
*Output, history, variable=PRESELECT
*End Step
