*Heading
 OpenJaw slit T30-T31  beta=0.50
** Job name: OJ_Slit_T3031_b050 Model name: OpenJawSlit
** Generated by: Abaqus/CAE 2024
*Preprint, echo=NO, model=NO, history=NO, contact=NO
**
** PARTS
**
*Part, name=SlitBiofilm
*Node
      1,  -44.4479866,   -73.639473,   17.5054264
      2,  -44.7840805,  -72.6976471,   17.5054264
      3,  -45.1201782,  -71.7558212,   17.5054264
      4,  -45.4562759,  -70.8139954,   17.5054264
      5,  -44.4479866,   -73.639473,   16.5329018
      6,  -44.7840805,  -72.6976471,   16.5329018
      7,  -45.1201782,  -71.7558212,   16.5329018
      8,  -45.4562759,  -70.8139954,   16.5329018
      9,  -44.4479866,   -73.639473,    15.560379
     10,  -44.7840805,  -72.6976471,    15.560379
     11,  -45.1201782,  -71.7558212,    15.560379
     12,  -45.4562759,  -70.8139954,    15.560379
     13,  -44.4479866,   -73.639473,   14.5878553
     14,  -44.7840805,  -72.6976471,   14.5878553
     15,  -45.1201782,  -71.7558212,   14.5878553
     16,  -45.4562759,  -70.8139954,   14.5878553
     17,  -44.4479866,   -73.639473,   13.6153316
     18,  -44.7840805,  -72.6976471,   13.6153316
     19,  -45.1201782,  -71.7558212,   13.6153316
     20,  -45.4562759,  -70.8139954,   13.6153316
** ... 1120 like lines cut
*Element, type=C3D8R
  1,   77,   78,   82,   81,    1,    2,    6,    5
  2,   78,   79,   83,   82,    2,    3,    7,    6
  3,   79,   80,   84,   83,    3,    4,    8,    7
  4,   81,   82,   86,   85,    5,    6,   10,    9
  5,   82,   83,   87,   86,    6,    7,   11,   10
  6,   83,   84,   88,   87,    7,    8,   12,   11
  7,   85,   86,   90,   89,    9,   10,   14,   13
  8,   86,   87,   91,   90,   10,   11,   15,   14
  9,   87,   88,   92,   91,   11,   12,   16,   15
 10,   89,   90,   94,   93,   13,   14,   18,   17
 11,   90,   91,   95,   94,   14,   15,   19,   18
 12,   91,   92,   96,   95,   15,   16,   20,   19
 13,   93,   94,   98,   97,   17,   18,   22,   21
 14,   94,   95,   99,   98,   18,   19,   23,   22
 15,   95,   96,  100,   99,   19,   20,   24,   23
 16,   97,   98,  102,  101,   21,   22,   26,   25
 17,   98,   99,  103,  102,   22,   23,   27,   26
 18,   99,  100,  104,  103,   23,   24,   28,   27
 19,  101,  102,  106,  105,   25,   26,   30,   29
 20,  102,  103,  107,  106,   26,   27,   31,   30
** ... 736 like lines cut
*Elset, elset=_PickedSet4, internal
   1,   3,   4,   6,   7,   9,  10,  12,  13,  15,  16,  18,  19,  21,  22,  24
  25,  27,  28,  30,  31,  33,  34,  36,  37,  39,  40,  42,  43,  45,  46,  48
  49,  51,  52,  54,  55,  57,  58,  60,  61,  63,  64,  66,  67,  69,  70,  72
  73,  75,  76,  78,  79,  81,  82,  84,  85,  87,  88,  90,  91,  93,  94,  96
  97,  99, 100, 102, 103, 105, 106, 108, 109, 111, 112, 114, 115, 117, 118, 120
 121, 123, 124, 126, 127, 129, 130, 132, 133, 135, 136, 138, 139, 141, 142, 144
 145, 147, 148, 150, 151, 153, 154, 156, 157, 159, 160, 162, 163, 165, 166, 168
 169, 171, 172, 174, 175, 177, 178, 180, 181, 183, 184, 186, 187, 189, 190, 192
 193, 195, 196, 198, 199, 201, 202, 204, 205, 207, 208, 210, 211, 213, 214, 216
 217, 219, 220, 222, 223, 225, 226, 228, 229, 231, 232, 234, 235, 237, 238, 240
 241, 243, 244, 246, 247, 249, 250, 252, 253, 255, 256, 258, 259, 261, 262, 264
 265, 267, 268, 270, 271, 273, 274, 276, 277, 279, 280, 282, 283, 285, 286, 288
 289, 291, 292, 294, 295, 297, 298, 300, 301, 303, 304, 306, 307, 309, 310, 312
 313, 315, 316, 318, 319, 321, 322, 324, 325, 327, 328, 330, 331, 333, 334, 336
 337, 339, 340, 342, 343, 345, 346, 348, 349, 351, 352, 354, 355, 357, 358, 360
 361, 363, 364, 366, 367, 369, 370, 372, 373, 375, 376, 378, 379, 381, 382, 384
 385, 387, 388, 390, 391, 393, 394, 396, 397, 399, 400, 402, 403, 405, 406, 408
 409, 411, 412, 414, 415, 417, 418, 420, 421, 423, 424, 426, 427, 429, 430, 432
 433, 435, 436, 438, 439, 441, 442, 444, 445, 447, 448, 450, 451, 453, 454, 456
 457, 459, 460, 462, 463, 465, 466, 468, 469, 471, 472, 474, 475, 477, 478, 480
** ... 12 like lines cut
*Elset, elset=_PickedSet5, internal, generate
   2,  755,    3
*Orientation, name=Ori-1
0.336096686626038, -0.941827488045979,           0., 0.941827488045979, 0.336096686626038,           0.
1, 0.
** Section: SEC_ANISO_04
*Solid Section, elset=_PickedSet4, orientation=Ori-1, material=MAT_ANISO_04
,
** Section: SEC_ANISO_08
*Solid Section, elset=_PickedSet5, orientation=Ori-1, material=MAT_ANISO_08
,
*End Part
**
**
** ASSEMBLY
**
*Assembly, name=Assembly
**
*Instance, name=SlitBioInst, part=SlitBiofilm
          0.,           0., 20.7283573150635
*End Instance
**
*Nset, nset=_PickedSet4, internal, instance=SlitBioInst
   73,   74,   75,   76,  149,  150,  151,  152,  225,  226,  227,  228,  301,  302,  303,  304
  377,  378,  379,  380,  453,  454,  455,  456,  529,  530,  531,  532,  605,  606,  607,  608
  681,  682,  683,  684,  757,  758,  759,  760,  833,  834,  835,  836,  909,  910,  911,  912
  985,  986,  987,  988, 1061, 1062, 1063, 1064, 1137, 1138, 1139, 1140
*Elset, elset=_PickedSet4, internal, instance=SlitBioInst
  52,  53,  54, 106, 107, 108, 160, 161, 162, 214, 215, 216, 268, 269, 270, 322
 323, 324, 376, 377, 378, 430, 431, 432, 484, 485, 486, 538, 539, 540, 592, 593
 594, 646, 647, 648, 700, 701, 702, 754, 755, 756
*Elset, elset=__PickedSurf5_S3, internal, instance=SlitBioInst
   1,   2,   3,  55,  56,  57, 109, 110, 111, 163, 164, 165, 217, 218, 219, 271
 272, 273, 325, 326, 327, 379, 380, 381, 433, 434, 435, 487, 488, 489, 541, 542
 543, 595, 596, 597, 649, 650, 651, 703, 704, 705
*Surface, type=ELEMENT, name=_PickedSurf5, internal
__PickedSurf5_S3, S3
*End Assembly
**
** MATERIALS
**
*Material, name=MAT_ANISO_00
*Elastic, type=ENGINEERING CONSTANTS
 9.66586e+09, 4.83293e+09, 4.83293e+09,         0.3,         0.3,         0.3, 3.71764e+09, 3.71764e+09
 1.85882e+09,
*Material, name=MAT_ANISO_01
*Elastic, type=ENGINEERING CONSTANTS
 9.01552e+09, 4.50776e+09, 4.50776e+09,         0.3,         0.3,         0.3, 3.46751e+09, 3.46751e+09
 1.73375e+09,
*Material, name=MAT_ANISO_02
*Elastic, type=ENGINEERING CONSTANTS
 8.38908e+09, 4.19454e+09, 4.19454e+09,         0.3,         0.3,         0.3, 3.22657e+09, 3.22657e+09
 1.61329e+09,
*Material, name=MAT_ANISO_03
*Elastic, type=ENGINEERING CONSTANTS
 7.78656e+09, 3.89328e+09, 3.89328e+09,         0.3,         0.3,         0.3, 2.99483e+09, 2.99483e+09
 1.49742e+09,
*Material, name=MAT_ANISO_04
*Elastic, type=ENGINEERING CONSTANTS
 7.20795e+09, 3.60398e+09, 3.60398e+09,         0.3,         0.3,         0.3, 2.77229e+09, 2.77229e+09
 1.38614e+09,
*Material, name=MAT_ANISO_05
*Elastic, type=ENGINEERING CONSTANTS
 6.65326e+09, 3.32663e+09, 3.32663e+09,         0.3,         0.3,         0.3, 2.55894e+09, 2.55894e+09
 1.27947e+09,
*Material, name=MAT_ANISO_06
*Elastic, type=ENGINEERING CONSTANTS
 6.12247e+09, 3.06123e+09, 3.06123e+09,         0.3,         0.3,         0.3,  2.3548e+09,  2.3548e+09
  1.1774e+09,
*Material, name=MAT_ANISO_07
*Elastic, type=ENGINEERING CONSTANTS
 5.6156e+09,  2.8078e+09,  2.8078e+09,         0.3,         0.3,         0.3, 2.15984e+09, 2.15984e+09
 1.07992e+09,
*Material, name=MAT_ANISO_08
*Elastic, type=ENGINEERING CONSTANTS
 5.13263e+09, 2.56632e+09, 2.56632e+09,         0.3,         0.3,         0.3, 1.97409e+09, 1.97409e+09
 9.87045e+08,
*Material, name=MAT_ANISO_09
*Elastic, type=ENGINEERING CONSTANTS
 4.67358e+09, 2.33679e+09, 2.33679e+09,         0.3,         0.3,         0.3, 1.79753e+09, 1.79753e+09
 8.98766e+08,
*Material, name=MAT_ANISO_10
*Elastic, type=ENGINEERING CONSTANTS
 4.23844e+09, 2.11922e+09, 2.11922e+09,         0.3,         0.3,         0.3, 1.63017e+09, 1.63017e+09
 8.15085e+08,
*Material, name=MAT_ANISO_11
*Elastic, type=ENGINEERING CONSTANTS
 3.82722e+09, 1.91361e+09, 1.91361e+09,         0.3,         0.3,         0.3, 1.47201e+09, 1.47201e+09
 7.36003e+08,
*Material, name=MAT_ANISO_12
*Elastic, type=ENGINEERING CONSTANTS
 3.4399e+09, 1.71995e+09, 1.71995e+09,         0.3,         0.3,         0.3, 1.32304e+09, 1.32304e+09
 6.61519e+08,
*Material, name=MAT_ANISO_13
*Elastic, type=ENGINEERING CONSTANTS
 3.0765e+09, 1.53825e+09, 1.53825e+09,         0.3,         0.3,         0.3, 1.18327e+09, 1.18327e+09
 5.91634e+08,
*Material, name=MAT_ANISO_14
*Elastic, type=ENGINEERING CONSTANTS
 2.737e+09,  1.3685e+09,  1.3685e+09,         0.3,         0.3,         0.3, 1.05269e+09, 1.05269e+09
 5.26347e+08,
*Material, name=MAT_ANISO_15
*Elastic, type=ENGINEERING CONSTANTS
 2.42142e+09, 1.21071e+09, 1.21071e+09,         0.3,         0.3,         0.3, 9.31316e+08, 9.31316e+08
 4.65658e+08,
*Material, name=MAT_ANISO_16
*Elastic, type=ENGINEERING CONSTANTS
 2.12975e+09, 1.06488e+09, 1.06488e+09,         0.3,         0.3,         0.3, 8.19136e+08, 8.19136e+08
 4.09568e+08,
*Material, name=MAT_ANISO_17
*Elastic, type=ENGINEERING CONSTANTS
 1.862e+09, 9.30998e+08, 9.30998e+08,         0.3,         0.3,         0.3, 7.16153e+08, 7.16153e+08
 3.58076e+08,
*Material, name=MAT_ANISO_18
*Elastic, type=ENGINEERING CONSTANTS
 1.61815e+09, 8.09076e+08, 8.09076e+08,         0.3,         0.3,         0.3, 6.22366e+08, 6.22366e+08
 3.11183e+08,
*Material, name=MAT_ANISO_19
*Elastic, type=ENGINEERING CONSTANTS
 1.39822e+09, 6.99109e+08, 6.99109e+08,         0.3,         0.3,         0.3, 5.37776e+08, 5.37776e+08
 2.68888e+08,
*Material, name=MAT_TOOTH
*Elastic
 1e+10, 0.3
**
** BOUNDARY CONDITIONS
**
** Name: FIX_SLIT_BOT Type: Displacement/Rotation
*Boundary
_PickedSet4, 1, 1
_PickedSet4, 2, 2
_PickedSet4, 3, 3
** ----------------------------------------------------------------
**
** STEP: LOAD_SLIT
**
*Step, name=LOAD_SLIT, nlgeom=NO
*Static
0.1, 1., 1e-05, 1.
**
** LOADS
**
** Name: PRESS_SLIT   Type: Pressure
*Dsload
_PickedSurf5, P, 1e+06
**
** OUTPUT REQUESTS
**
*Restart, write, frequency=0
**
** FIELD OUTPUT: F-Output-1
**
*Output, field, variable=PRESELECT
**
** HISTORY OUTPUT: H-Output-1
**
*Output, history, variable=PRESELECT
*End Step
