*Heading
 OpenJaw biofilm P1_Tooth_23  geom=crown  beta=0.50
** Job name: oj_t23_b050 Model name: OpenJawBio_T23
** Generated by: Abaqus/CAE 2024
*Preprint, echo=NO, model=NO, history=NO, contact=NO
**
** PARTS
**
*Part, name=Biofilm
*Node
      1,  -70.8585587,   -37.614502,           0.
      2,  -71.6079407,  -39.1043282,           0.
      3,  -69.1723633,  -37.1630516,           0.
      4,  -67.6466599,  -37.8516045,           0.
      5,  -67.1296997,  -39.4672356,           0.
      6,  -66.9744186,  -41.3461113,           0.
      7,  -67.4104843,  -43.2870255,           0.
      8,  -68.1333389,  -44.8890877,           0.
      9,  -69.6301117,  -45.4331093,           0.
     10,  -71.0991745,  -44.5120049,           0.
     11,  -71.6303711,  -42.8107262,           0.
     12,  -71.7169266,  -40.9021759,           0.
     13,  -71.1083527,  -38.1111107,           0.
     14,  -71.3581467,  -38.6077194,           0.
     15,  -69.7344284,  -37.3135376,           0.
     16,  -70.2964935,  -37.4640198,           0.
     17,  -68.1552277,  -37.6220856,           0.
     18,  -68.6637955,  -37.3925705,           0.
     19,  -67.3020172,  -38.9286919,           0.
     20,  -67.4743423,  -38.3901482,           0.
** ... 7820 like lines cut
*Element, type=C3D8R
   1,   22,   23,   57,   56,  218,  219,  253,  252
   2,   70,   84,   96,   85,  266,  280,  292,  281
   3,  110,  173,  103,  180,  306,  369,  299,  376
   4,   29,    7,   61,   46,  225,  203,  257,  242
   5,   45,   66,   82,   75,  241,  262,  278,  271
   6,   47,   35,   36,   48,  243,  231,  232,  244
   7,  174,  126,  107,  165,  370,  322,  303,  361
   8,   28,   29,   46,   44,  224,  225,  242,  240
   9,   63,   62,   24,   25,  259,  258,  220,  221
  10,   56,   55,   21,   22,  252,  251,  217,  218
  11,   13,  127,   16,    1,  209,  323,  212,  197
  12,   41,   51,   53,   40,  237,  247,  249,  236
  13,    3,   15,  150,  175,  199,  211,  346,  371
  14,  131,  111,  128,  137,  327,  307,  324,  333
  15,   17,  172,   20,    4,  213,  368,  216,  200
  16,  149,  139,  123,  174,  345,  335,  319,  370
  17,  180,  119,  100,   94,  376,  315,  296,  290
  18,   56,   57,   93,   72,  252,  253,  289,  268
  19,  171,   54,   26,    6,  367,  250,  222,  202
  20,   90,   51,   52,   69,  286,  247,  248,  265
** ... 6766 like lines cut
*Elset, elset=_PickedSet4, internal
   26,   36,   52,  200,  210,  226,  374,  384,  400,  548,  558,  574,  722,  732,  748,  896
  906,  922, 1070, 1080, 1096, 1244, 1254, 1270, 1418, 1428, 1444, 1592, 1602, 1618, 1766, 1776
 1792, 1940, 1950, 1966, 2114, 2124, 2140, 2288, 2298, 2314, 2462, 2472, 2488, 2636, 2646, 2662
 2810, 2820, 2836, 2984, 2994, 3010, 3158, 3168, 3184, 3332, 3342, 3358, 3506, 3516, 3532, 3680
 3690, 3706, 3854, 3864, 3880, 4028, 4038, 4054, 4202, 4212, 4228, 4376, 4386, 4402, 4550, 4560
 4576, 4724, 4734, 4750, 4898, 4908, 4924, 5072, 5082, 5098, 5246, 5256, 5272, 5420, 5430, 5446
 5594, 5604, 5620, 5768, 5778, 5794, 5942, 5952, 5968, 6116, 6126, 6142, 6290, 6300, 6316, 6464
 6474, 6490, 6638, 6648, 6664
*Elset, elset=_PickedSet5, internal
   72,   87,  161,  246,  261,  335,  420,  435,  509,  594,  609,  683,  768,  783,  857,  942
  957, 1031, 1116, 1131, 1205, 1290, 1305, 1379, 1464, 1479, 1553, 1638, 1653, 1727, 1812, 1827
 1901, 1986, 2001, 2075, 2160, 2175, 2249, 2334, 2349, 2423, 2508, 2523, 2597, 2682, 2697, 2771
 2856, 2871, 2945, 3030, 3045, 3119, 3204, 3219, 3293, 3378, 3393, 3467, 3552, 3567, 3641, 3726
 3741, 3815, 3900, 3915, 3989, 4074, 4089, 4163, 4248, 4263, 4337, 4422, 4437, 4511, 4596, 4611
 4685, 4770, 4785, 4859, 4944, 4959, 5033, 5118, 5133, 5207, 5292, 5307, 5381, 5466, 5481, 5555
 5640, 5655, 5729, 5814, 5829, 5903, 5988, 6003, 6077, 6162, 6177, 6251, 6336, 6351, 6425, 6510
 6525, 6599, 6684, 6699, 6773
*Elset, elset=_PickedSet6, internal
  133,  158,  307,  332,  481,  506,  655,  680,  829,  854, 1003, 1028, 1177, 1202, 1351, 1376
 1525, 1550, 1699, 1724, 1873, 1898, 2047, 2072, 2221, 2246, 2395, 2420, 2569, 2594, 2743, 2768
 2917, 2942, 3091, 3116, 3265, 3290, 3439, 3464, 3613, 3638, 3787, 3812, 3961, 3986, 4135, 4160
 4309, 4334, 4483, 4508, 4657, 4682, 4831, 4856, 5005, 5030, 5179, 5204, 5353, 5378, 5527, 5552
 5701, 5726, 5875, 5900, 6049, 6074, 6223, 6248, 6397, 6422, 6571, 6596, 6745, 6770
*Elset, elset=_PickedSet7, internal
   11,   13,   15,   34,   48,   49,   75,   77,   78,  132,  185,  187,  189,  208,  222,  223
  249,  251,  252,  306,  359,  361,  363,  382,  396,  397,  423,  425,  426,  480,  533,  535
  537,  556,  570,  571,  597,  599,  600,  654,  707,  709,  711,  730,  744,  745,  771,  773
  774,  828,  881,  883,  885,  904,  918,  919,  945,  947,  948, 1002, 1055, 1057, 1059, 1078
 1092, 1093, 1119, 1121, 1122, 1176, 1229, 1231, 1233, 1252, 1266, 1267, 1293, 1295, 1296, 1350
 1403, 1405, 1407, 1426, 1440, 1441, 1467, 1469, 1470, 1524, 1577, 1579, 1581, 1600, 1614, 1615
 1641, 1643, 1644, 1698, 1751, 1753, 1755, 1774, 1788, 1789, 1815, 1817, 1818, 1872, 1925, 1927
 1929, 1948, 1962, 1963, 1989, 1991, 1992, 2046, 2099, 2101, 2103, 2122, 2136, 2137, 2163, 2165
 2166, 2220, 2273, 2275, 2277, 2296, 2310, 2311, 2337, 2339, 2340, 2394, 2447, 2449, 2451, 2470
 2484, 2485, 2511, 2513, 2514, 2568, 2621, 2623, 2625, 2644, 2658, 2659, 2685, 2687, 2688, 2742
 2795, 2797, 2799, 2818, 2832, 2833, 2859, 2861, 2862, 2916, 2969, 2971, 2973, 2992, 3006, 3007
 3033, 3035, 3036, 3090, 3143, 3145, 3147, 3166, 3180, 3181, 3207, 3209, 3210, 3264, 3317, 3319
 3321, 3340, 3354, 3355, 3381, 3383, 3384, 3438, 3491, 3493, 3495, 3514, 3528, 3529, 3555, 3557
 3558, 3612, 3665, 3667, 3669, 3688, 3702, 3703, 3729, 3731, 3732, 3786, 3839, 3841, 3843, 3862
 3876, 3877, 3903, 3905, 3906, 3960, 4013, 4015, 4017, 4036, 4050, 4051, 4077, 4079, 4080, 4134
 4187, 4189, 4191, 4210, 4224, 4225, 4251, 4253, 4254, 4308, 4361, 4363, 4365, 4384, 4398, 4399
 4425, 4427, 4428, 4482, 4535, 4537, 4539, 4558, 4572, 4573, 4599, 4601, 4602, 4656, 4709, 4711
 4713, 4732, 4746, 4747, 4773, 4775, 4776, 4830, 4883, 4885, 4887, 4906, 4920, 4921, 4947, 4949
 4950, 5004, 5057, 5059, 5061, 5080, 5094, 5095, 5121, 5123, 5124, 5178, 5231, 5233, 5235, 5254
 5268, 5269, 5295, 5297, 5298, 5352, 5405, 5407, 5409, 5428, 5442, 5443, 5469, 5471, 5472, 5526
** ... 5 like lines cut
*Elset, elset=_PickedSet8, internal
    1,    2,    3,    4,    5,    6,    7,    8,    9,   10,   12,   14,   16,   17,   18,   19
   20,   21,   22,   23,   25,   27,   29,   30,   31,   32,   33,   35,   37,   38,   39,   40
   41,   42,   43,   44,   45,   46,   47,   50,   51,   53,   54,   55,   56,   57,   58,   59
   60,   61,   62,   63,   64,   65,   66,   67,   68,   69,   70,   71,   73,   74,   76,   79
   80,   81,   82,   83,   84,   85,   86,   88,   89,   90,   91,   92,   93,   94,   95,   96
   97,   98,   99,  100,  101,  102,  103,  104,  105,  106,  107,  108,  109,  110,  111,  112
  113,  114,  115,  116,  117,  118,  119,  120,  121,  122,  123,  124,  125,  126,  127,  128
  129,  130,  131,  134,  135,  136,  137,  138,  139,  140,  141,  142,  143,  144,  145,  146
  147,  148,  149,  150,  151,  152,  153,  154,  155,  156,  157,  159,  160,  164,  165,  166
  167,  168,  169,  170,  171,  172,  173,  174,  175,  176,  177,  178,  179,  180,  181,  182
  183,  184,  186,  188,  190,  191,  192,  193,  194,  195,  196,  197,  199,  201,  203,  204
  205,  206,  207,  209,  211,  212,  213,  214,  215,  216,  217,  218,  219,  220,  221,  224
  225,  227,  228,  229,  230,  231,  232,  233,  234,  235,  236,  237,  238,  239,  240,  241
  242,  243,  244,  245,  247,  248,  250,  253,  254,  255,  256,  257,  258,  259,  260,  262
  263,  264,  265,  266,  267,  268,  269,  270,  271,  272,  273,  274,  275,  276,  277,  278
  279,  280,  281,  282,  283,  284,  285,  286,  287,  288,  289,  290,  291,  292,  293,  294
  295,  296,  297,  298,  299,  300,  301,  302,  303,  304,  305,  308,  309,  310,  311,  312
  313,  314,  315,  316,  317,  318,  319,  320,  321,  322,  323,  324,  325,  326,  327,  328
  329,  330,  331,  333,  334,  338,  339,  340,  341,  342,  343,  344,  345,  346,  347,  348
  349,  350,  351,  352,  353,  354,  355,  356,  357,  358,  360,  362,  364,  365,  366,  367
** ... 351 like lines cut
*Elset, elset=_PickedSet9, internal
   24,  162,  198,  336,  372,  510,  546,  684,  720,  858,  894, 1032, 1068, 1206, 1242, 1380
 1416, 1554, 1590, 1728, 1764, 1902, 1938, 2076, 2112, 2250, 2286, 2424, 2460, 2598, 2634, 2772
 2808, 2946, 2982, 3120, 3156, 3294, 3330, 3468, 3504, 3642, 3678, 3816, 3852, 3990, 4026, 4164
 4200, 4338, 4374, 4512, 4548, 4686, 4722, 4860, 4896, 5034, 5070, 5208, 5244, 5382, 5418, 5556
 5592, 5730, 5766, 5904, 5940, 6078, 6114, 6252, 6288, 6426, 6462, 6600, 6636, 6774
*Elset, elset=_PickedSet10, internal
   28,  163,  202,  337,  376,  511,  550,  685,  724,  859,  898, 1033, 1072, 1207, 1246, 1381
 1420, 1555, 1594, 1729, 1768, 1903, 1942, 2077, 2116, 2251, 2290, 2425, 2464, 2599, 2638, 2773
 2812, 2947, 2986, 3121, 3160, 3295, 3334, 3469, 3508, 3643, 3682, 3817, 3856, 3991, 4030, 4165
 4204, 4339, 4378, 4513, 4552, 4687, 4726, 4861, 4900, 5035, 5074, 5209, 5248, 5383, 5422, 5557
 5596, 5731, 5770, 5905, 5944, 6079, 6118, 6253, 6292, 6427, 6466, 6601, 6640, 6775
*Orientation, name=Ori-1
          1.,           0.,           0.,           0.,           0.,           1.
1, 0.
** Section: SEC_ANISO_09
*Solid Section, elset=_PickedSet8, orientation=Ori-1, material=MAT_ANISO_09
,
** Section: SEC_ANISO_08
*Solid Section, elset=_PickedSet7, orientation=Ori-1, material=MAT_ANISO_08
,
** Section: SEC_ANISO_10
*Solid Section, elset=_PickedSet9, orientation=Ori-1, material=MAT_ANISO_10
,
** Section: SEC_ANISO_04
*Solid Section, elset=_PickedSet4, orientation=Ori-1, material=MAT_ANISO_04
,
** Section: SEC_ANISO_11
*Solid Section, elset=_PickedSet10, orientation=Ori-1, material=MAT_ANISO_11
,
** Section: SEC_ANISO_05
*Solid Section, elset=_PickedSet5, orientation=Ori-1, material=MAT_ANISO_05
,
** Section: SEC_ANISO_07
*Solid Section, elset=_PickedSet6, orientation=Ori-1, material=MAT_ANISO_07
,
*End Part
**
**
** ASSEMBLY
**
*Assembly, name=Assembly
**
*Instance, name=BioInst, part=Biofilm
          0.,           0., 18.5561180114746
*End Instance
**
*Nset, nset=_PickedSet3, internal, instance=BioInst, generate
   1,  196,    1
*Elset, elset=_PickedSet3, internal, instance=BioInst, generate
   1,  174,    1
*Elset, elset=__PickedSurf4_S2, internal, instance=BioInst, generate
 6613,  6786,     1
*Surface, type=ELEMENT, name=_PickedSurf4, internal
__PickedSurf4_S2, S2
*End Assembly
**
** MATERIALS
**
*Material, name=MAT_ANISO_00
*Elastic, type=ENGINEERING CONSTANTS
 9.60162e+09, 4.80081e+09, 4.80081e+09,         0.3,         0.3,         0.3, 3.69293e+09, 3.69293e+09
 1.84647e+09,
*Material, name=MAT_ANISO_01
*Elastic, type=ENGINEERING CONSTANTS
 8.83045e+09, 4.41523e+09, 4.41523e+09,         0.3,         0.3,         0.3, 3.39633e+09, 3.39633e+09
 1.69816e+09,
*Material, name=MAT_ANISO_02
*Elastic, type=ENGINEERING CONSTANTS
 8.09339e+09, 4.04669e+09, 4.04669e+09,         0.3,         0.3,         0.3, 3.11284e+09, 3.11284e+09
 1.55642e+09,
*Material, name=MAT_ANISO_03
*Elastic, type=ENGINEERING CONSTANTS
 7.39043e+09, 3.69521e+09, 3.69521e+09,         0.3,         0.3,         0.3, 2.84247e+09, 2.84247e+09
 1.42124e+09,
*Material, name=MAT_ANISO_04
*Elastic, type=ENGINEERING CONSTANTS
 6.72158e+09, 3.36079e+09, 3.36079e+09,         0.3,         0.3,         0.3, 2.58522e+09, 2.58522e+09
 1.29261e+09,
*Material, name=MAT_ANISO_05
*Elastic, type=ENGINEERING CONSTANTS
 6.08684e+09, 3.04342e+09, 3.04342e+09,         0.3,         0.3,         0.3, 2.34109e+09, 2.34109e+09
 1.17055e+09,
*Material, name=MAT_ANISO_06
*Elastic, type=ENGINEERING CONSTANTS
 5.48621e+09,  2.7431e+09,  2.7431e+09,         0.3,         0.3,         0.3, 2.11008e+09, 2.11008e+09
 1.05504e+09,
*Material, name=MAT_ANISO_07
*Elastic, type=ENGINEERING CONSTANTS
 4.91968e+09, 2.45984e+09, 2.45984e+09,         0.3,         0.3,         0.3, 1.89218e+09, 1.89218e+09
 9.46092e+08,
*Material, name=MAT_ANISO_08
*Elastic, type=ENGINEERING CONSTANTS
 4.38726e+09, 2.19363e+09, 2.19363e+09,         0.3,         0.3,         0.3, 1.68741e+09, 1.68741e+09
 8.43704e+08,
*Material, name=MAT_ANISO_09
*Elastic, type=ENGINEERING CONSTANTS
 3.88895e+09, 1.94448e+09, 1.94448e+09,         0.3,         0.3,         0.3, 1.49575e+09, 1.49575e+09
 7.47876e+08,
*Material, name=MAT_ANISO_10
*Elastic, type=ENGINEERING CONSTANTS
 3.42475e+09, 1.71238e+09, 1.71238e+09,         0.3,         0.3,         0.3, 1.31721e+09, 1.31721e+09
 6.58606e+08,
*Material, name=MAT_ANISO_11
*Elastic, type=ENGINEERING CONSTANTS
 2.99466e+09, 1.49733e+09, 1.49733e+09,         0.3,         0.3,         0.3, 1.15179e+09, 1.15179e+09
 5.75896e+08,
*Material, name=MAT_ANISO_12
*Elastic, type=ENGINEERING CONSTANTS
 2.59867e+09, 1.29934e+09, 1.29934e+09,         0.3,         0.3,         0.3,  9.9949e+08,  9.9949e+08
 4.99745e+08,
*Material, name=MAT_ANISO_13
*Elastic, type=ENGINEERING CONSTANTS
 2.2368e+09,  1.1184e+09,  1.1184e+09,         0.3,         0.3,         0.3, 8.60306e+08, 8.60306e+08
 4.30153e+08,
*Material, name=MAT_ANISO_14
*Elastic, type=ENGINEERING CONSTANTS
 1.90903e+09, 9.54513e+08, 9.54513e+08,         0.3,         0.3,         0.3, 7.34241e+08, 7.34241e+08
  3.6712e+08,
*Material, name=MAT_ANISO_15
*Elastic, type=ENGINEERING CONSTANTS
 1.61536e+09, 8.07682e+08, 8.07682e+08,         0.3,         0.3,         0.3, 6.21294e+08, 6.21294e+08
 3.10647e+08,
*Material, name=MAT_ANISO_16
*Elastic, type=ENGINEERING CONSTANTS
 1.35581e+09, 6.77905e+08, 6.77905e+08,         0.3,         0.3,         0.3, 5.21466e+08, 5.21466e+08
 2.60733e+08,
*Material, name=MAT_ANISO_17
*Elastic, type=ENGINEERING CONSTANTS
 1.13036e+09, 5.65182e+08, 5.65182e+08,         0.3,         0.3,         0.3, 4.34756e+08, 4.34756e+08
 2.17378e+08,
*Material, name=MAT_ANISO_18
*Elastic, type=ENGINEERING CONSTANTS
 9.39027e+08, 4.69513e+08, 4.69513e+08,         0.3,         0.3,         0.3, 3.61164e+08, 3.61164e+08
 1.80582e+08,
*Material, name=MAT_ANISO_19
*Elastic, type=ENGINEERING CONSTANTS
 7.81797e+08, 3.90898e+08, 3.90898e+08,         0.3,         0.3,         0.3, 3.00691e+08, 3.00691e+08
 1.50345e+08,
**
** BOUNDARY CONDITIONS
**
** Name: FIX_BOT Type: Displacement/Rotation
*Boundary
_PickedSet3, 1, 1
_PickedSet3, 2, 2
_PickedSet3, 3, 3
** ----------------------------------------------------------------
**
** STEP: LOAD
**
*Step, name=LOAD, nlgeom=NO
*Static
0.1, 1., 1e-05, 1.
**
** LOADS
**
** Name: PRESS   Type: Pressure
*Dsload
_PickedSurf4, P, 1e+06
**
** OUTPUT REQUESTS
**
*Restart, write, frequency=0
**
** FIELD OUTPUT: F-Output-1
**
*Output, field, variable=PRESELECT
**
** HISTORY OUTPUT: H-Output-1
**
*Output, history, variable=PRESELECT
*End Step
