*Heading
 OpenJaw biofilm P1_Tooth_30  geom=crown  beta=0.50
** Job name: oj_t30_b050 Model name: OpenJawBio_T30
** Generated by: Abaqus/CAE 2024
*Preprint, echo=NO, model=NO, history=NO, contact=NO
**
** PARTS
**
*Part, name=Biofilm
*Node
      1,  -43.4174728,  -60.7278786,           0.
      2,  -44.7002525,  -63.3529892,           0.
      3,  -40.6880188,  -59.1887398,           0.
      4,  -38.0714607,  -58.0776672,           0.
      5,  -35.6293945,  -59.0655975,           0.
      6,  -34.5017967,  -61.7402954,           0.
      7,   -33.558857,   -64.483017,           0.
      8,  -33.6515732,  -67.2105103,           0.
      9,  -35.8609123,  -68.8852539,           0.
     10,  -38.6453552,  -69.6250229,           0.
     11,  -41.1485634,  -68.5382919,           0.
     12,  -43.1368294,  -66.1324692,           0.
     13,  -43.6007271,  -61.1028938,           0.
     14,  -43.7839813,  -61.4779091,           0.
     15,  -43.9672356,  -61.8529282,           0.
     16,  -44.1504898,  -62.2279434,           0.
     17,   -44.333744,  -62.6029587,           0.
     18,  -44.5169983,  -62.9779739,           0.
     19,  -41.1429253,  -59.4452629,           0.
     20,  -41.5978355,   -59.701786,           0.
** ... 21218 like lines cut
*Element, type=C3D8R
    1,    72,    16,    17,    74,   590,   534,   535,   592
    2,    21,   129,   128,    20,   539,   647,   646,   538
    3,   106,    27,    28,   111,   624,   545,   546,   629
    4,   120,    95,    94,   116,   638,   613,   612,   634
    5,   182,   133,    69,    70,   700,   651,   587,   588
    6,    40,    91,    88,    39,   558,   609,   606,   557
    7,    53,    54,    85,    84,   571,   572,   603,   602
    8,    63,    64,   123,   124,   581,   582,   641,   642
    9,    36,    93,    94,    35,   554,   611,   612,   553
   10,    39,    88,    92,    38,   557,   606,   610,   556
   11,    13,    71,   459,     1,   531,   589,   977,   519
   12,    15,    73,    76,    14,   533,   591,   594,   532
   13,   469,    73,    72,    98,   987,   591,   590,   616
   14,    33,    97,    87,     6,   551,   615,   605,   524
   15,    83,     3,    19,   126,   601,   521,   537,   644
   16,   204,   236,   244,   490,   722,   754,   762,  1008
   17,   190,   147,   164,   196,   708,   665,   682,   714
   18,    23,   176,   127,    22,   541,   694,   645,   540
   19,   458,   130,    32,   153,   976,   648,   550,   671
   20,    32,     4,    24,   153,   550,   522,   542,   671
** ... 19260 like lines cut
*Elset, elset=_PickedSet4, internal
    35,    71,   100,   517,   553,   582,   999,  1035,  1064,  1481,  1517,  1546,  1963,  1999,  2028,  2445
  2481,  2510,  2927,  2963,  2992,  3409,  3445,  3474,  3891,  3927,  3956,  4373,  4409,  4438,  4855,  4891
  4920,  5337,  5373,  5402,  5819,  5855,  5884,  6301,  6337,  6366,  6783,  6819,  6848,  7265,  7301,  7330
  7747,  7783,  7812,  8229,  8265,  8294,  8711,  8747,  8776,  9193,  9229,  9258,  9675,  9711,  9740, 10157
 10193, 10222, 10639, 10675, 10704, 11121, 11157, 11186, 11603, 11639, 11668, 12085, 12121, 12150, 12567, 12603
 12632, 13049, 13085, 13114, 13531, 13567, 13596, 14013, 14049, 14078, 14495, 14531, 14560, 14977, 15013, 15042
 15459, 15495, 15524, 15941, 15977, 16006, 16423, 16459, 16488, 16905, 16941, 16970, 17387, 17423, 17452, 17869
 17905, 17934, 18351, 18387, 18416, 18833, 18869, 18898
*Elset, elset=_PickedSet5, internal
    43,   101,   525,   583,  1007,  1065,  1489,  1547,  1971,  2029,  2453,  2511,  2935,  2993,  3417,  3475
  3899,  3957,  4381,  4439,  4863,  4921,  5345,  5403,  5827,  5885,  6309,  6367,  6791,  6849,  7273,  7331
  7755,  7813,  8237,  8295,  8719,  8777,  9201,  9259,  9683,  9741, 10165, 10223, 10647, 10705, 11129, 11187
 11611, 11669, 12093, 12151, 12575, 12633, 13057, 13115, 13539, 13597, 14021, 14079, 14503, 14561, 14985, 15043
 15467, 15525, 15949, 16007, 16431, 16489, 16913, 16971, 17395, 17453, 17877, 17935, 18359, 18417, 18841, 18899
*Elset, elset=_PickedSet6, internal
     1,     2,     3,     4,     5,     6,     7,     8,     9,    10,    11,    12,    13,    14,    15,    16
    17,    18,    19,    20,    21,    22,    23,    24,    25,    26,    27,    28,    29,    30,    31,    33
    34,    36,    37,    38,    39,    40,    41,    42,    44,    45,    46,    47,    48,    49,    50,    51
    52,    53,    54,    55,    56,    57,    58,    59,    60,    61,    62,    63,    64,    65,    66,    67
    68,    69,    70,    72,    73,    74,    75,    76,    77,    78,    79,    80,    81,    82,    83,    84
    85,    86,    87,    88,    89,    90,    91,    92,    93,    94,    95,    96,    97,    98,    99,   102
   103,   104,   105,   106,   107,   108,   109,   110,   111,   112,   113,   114,   115,   116,   117,   118
   119,   120,   121,   122,   123,   124,   125,   126,   127,   128,   129,   130,   131,   132,   133,   134
   135,   136,   137,   138,   139,   140,   141,   142,   143,   144,   145,   146,   147,   148,   149,   150
   151,   152,   153,   154,   155,   156,   157,   158,   159,   160,   161,   162,   163,   164,   165,   166
   167,   168,   169,   170,   171,   172,   173,   174,   175,   176,   177,   178,   179,   180,   181,   182
   183,   184,   185,   186,   187,   188,   189,   190,   191,   192,   193,   194,   195,   196,   197,   198
   199,   200,   201,   202,   203,   204,   205,   206,   207,   208,   209,   210,   211,   212,   213,   214
   215,   216,   217,   218,   219,   220,   221,   222,   223,   224,   225,   226,   227,   228,   229,   230
   231,   232,   233,   234,   235,   236,   237,   238,   239,   240,   241,   242,   243,   244,   245,   246
   247,   248,   249,   250,   251,   252,   253,   254,   255,   256,   257,   258,   259,   260,   261,   262
   263,   264,   265,   266,   267,   268,   269,   270,   271,   272,   273,   274,   275,   276,   277,   278
   279,   280,   281,   282,   283,   284,   285,   286,   287,   288,   289,   290,   291,   292,   293,   294
   295,   296,   297,   298,   299,   300,   301,   302,   303,   304,   305,   306,   307,   308,   309,   310
   311,   312,   313,   314,   315,   316,   317,   318,   319,   320,   321,   322,   323,   324,   325,   326
** ... 1170 like lines cut
*Elset, elset=_PickedSet7, internal, generate
    32,  18830,    482
*Orientation, name=Ori-1
          1.,           0.,           0.,           0.,           0.,           1.
1, 0.
** Section: SEC_ANISO_09
*Solid Section, elset=_PickedSet6, orientation=Ori-1, material=MAT_ANISO_09
,
** Section: SEC_ANISO_11
*Solid Section, elset=_PickedSet7, orientation=Ori-1, material=MAT_ANISO_11
,
** Section: SEC_ANISO_07
*Solid Section, elset=_PickedSet4, orientation=Ori-1, material=MAT_ANISO_07
,
** Section: SEC_ANISO_08
*Solid Section, elset=_PickedSet5, orientation=Ori-1, material=MAT_ANISO_08
,
*End Part
**
**
** ASSEMBLY
**
*Assembly, name=Assembly
**
*Instance, name=BioInst, part=Biofilm
          0.,           0., 18.1703414916992
*End Instance
**
*Nset, nset=_PickedSet3, internal, instance=BioInst, generate
   1,  518,    1
*Elset, elset=_PickedSet3, internal, instance=BioInst, generate
   1,  482,    1
*Elset, elset=__PickedSurf4_S2, internal, instance=BioInst, generate
 18799,  19280,      1
*Surface, type=ELEMENT, name=_PickedSurf4, internal
__PickedSurf4_S2, S2
*End Assembly
**
** MATERIALS
**
*Material, name=MAT_ANISO_00
*Elastic, type=ENGINEERING CONSTANTS
 9.60162e+09, 4.80081e+09, 4.80081e+09,         0.3,         0.3,         0.3, 3.69293e+09, 3.69293e+09
 1.84647e+09,
*Material, name=MAT_ANISO_01
*Elastic, type=ENGINEERING CONSTANTS
 8.83045e+09, 4.41523e+09, 4.41523e+09,         0.3,         0.3,         0.3, 3.39633e+09, 3.39633e+09
 1.69816e+09,
*Material, name=MAT_ANISO_02
*Elastic, type=ENGINEERING CONSTANTS
 8.09339e+09, 4.04669e+09, 4.04669e+09,         0.3,         0.3,         0.3, 3.11284e+09, 3.11284e+09
 1.55642e+09,
*Material, name=MAT_ANISO_03
*Elastic, type=ENGINEERING CONSTANTS
 7.39043e+09, 3.69521e+09, 3.69521e+09,         0.3,         0.3,         0.3, 2.84247e+09, 2.84247e+09
 1.42124e+09,
*Material, name=MAT_ANISO_04
*Elastic, type=ENGINEERING CONSTANTS
 6.72158e+09, 3.36079e+09, 3.36079e+09,         0.3,         0.3,         0.3, 2.58522e+09, 2.58522e+09
 1.29261e+09,
*Material, name=MAT_ANISO_05
*Elastic, type=ENGINEERING CONSTANTS
 6.08684e+09, 3.04342e+09, 3.04342e+09,         0.3,         0.3,         0.3, 2.34109e+09, 2.34109e+09
 1.17055e+09,
*Material, name=MAT_ANISO_06
*Elastic, type=ENGINEERING CONSTANTS
 5.48621e+09,  2.7431e+09,  2.7431e+09,         0.3,         0.3,         0.3, 2.11008e+09, 2.11008e+09
 1.05504e+09,
*Material, name=MAT_ANISO_07
*Elastic, type=ENGINEERING CONSTANTS
 4.91968e+09, 2.45984e+09, 2.45984e+09,         0.3,         0.3,         0.3, 1.89218e+09, 1.89218e+09
 9.46092e+08,
*Material, name=MAT_ANISO_08
*Elastic, type=ENGINEERING CONSTANTS
 4.38726e+09, 2.19363e+09, 2.19363e+09,         0.3,         0.3,         0.3, 1.68741e+09, 1.68741e+09
 8.43704e+08,
*Material, name=MAT_ANISO_09
*Elastic, type=ENGINEERING CONSTANTS
 3.88895e+09, 1.94448e+09, 1.94448e+09,         0.3,         0.3,         0.3, 1.49575e+09, 1.49575e+09
 7.47876e+08,
*Material, name=MAT_ANISO_10
*Elastic, type=ENGINEERING CONSTANTS
 3.42475e+09, 1.71238e+09, 1.71238e+09,         0.3,         0.3,         0.3, 1.31721e+09, 1.31721e+09
 6.58606e+08,
*Material, name=MAT_ANISO_11
*Elastic, type=ENGINEERING CONSTANTS
 2.99466e+09, 1.49733e+09, 1.49733e+09,         0.3,         0.3,         0.3, 1.15179e+09, 1.15179e+09
 5.75896e+08,
*Material, name=MAT_ANISO_12
*Elastic, type=ENGINEERING CONSTANTS
 2.59867e+09, 1.29934e+09, 1.29934e+09,         0.3,         0.3,         0.3,  9.9949e+08,  9.9949e+08
 4.99745e+08,
*Material, name=MAT_ANISO_13
*Elastic, type=ENGINEERING CONSTANTS
 2.2368e+09,  1.1184e+09,  1.1184e+09,         0.3,         0.3,         0.3, 8.60306e+08, 8.60306e+08
 4.30153e+08,
*Material, name=MAT_ANISO_14
*Elastic, type=ENGINEERING CONSTANTS
 1.90903e+09, 9.54513e+08, 9.54513e+08,         0.3,         0.3,         0.3, 7.34241e+08, 7.34241e+08
  3.6712e+08,
*Material, name=MAT_ANISO_15
*Elastic, type=ENGINEERING CONSTANTS
 1.61536e+09, 8.07682e+08, 8.07682e+08,         0.3,         0.3,         0.3, 6.21294e+08, 6.21294e+08
 3.10647e+08,
*Material, name=MAT_ANISO_16
*Elastic, type=ENGINEERING CONSTANTS
 1.35581e+09, 6.77905e+08, 6.77905e+08,         0.3,         0.3,         0.3, 5.21466e+08, 5.21466e+08
 2.60733e+08,
*Material, name=MAT_ANISO_17
*Elastic, type=ENGINEERING CONSTANTS
 1.13036e+09, 5.65182e+08, 5.65182e+08,         0.3,         0.3,         0.3, 4.34756e+08, 4.34756e+08
 2.17378e+08,
*Material, name=MAT_ANISO_18
*Elastic, type=ENGINEERING CONSTANTS
 9.39027e+08, 4.69513e+08, 4.69513e+08,         0.3,         0.3,         0.3, 3.61164e+08, 3.61164e+08
 1.80582e+08,
*Material, name=MAT_ANISO_19
*Elastic, type=ENGINEERING CONSTANTS
 7.81797e+08, 3.90898e+08, 3.90898e+08,         0.3,         0.3,         0.3, 3.00691e+08, 3.00691e+08
 1.50345e+08,
**
** BOUNDARY CONDITIONS
**
** Name: FIX_BOT Type: Displacement/Rotation
*Boundary
_PickedSet3, 1, 1
_PickedSet3, 2, 2
_PickedSet3, 3, 3
** ----------------------------------------------------------------
**
** STEP: LOAD
**
*Step, name=LOAD, nlgeom=NO
*Static
0.1, 1., 1e-05, 1.
**
** LOADS
**
** Name: PRESS   Type: Pressure
*Dsload
_PickedSurf4, P, 1e+06
**
** OUTPUT REQUESTS
**
*Restart, write, frequency=0
**
** FIELD OUTPUT: F-Output-1
**
*Output, field, variable=PRESELECT
**
** HISTORY OUTPUT: H-Output-1
**
*Output, history, variable=PRESELECT
*End Step
