*Heading
 OpenJaw biofilm P1_Tooth_30  geom=slit  beta=0.50
** Job name: OJ_T30_b050 Model name: OpenJawBio_T30
** Generated by: Abaqus/CAE 2024
*Preprint, echo=NO, model=NO, history=NO, contact=NO
**
** PARTS
**
*Part, name=Biofilm
*Node
      1,  -38.6055679,  -70.5567703,   20.0634422
      2,  -39.0723991,  -70.5567703,   20.0634422
      3,  -39.5392342,  -70.5567703,   20.0634422
      4,  -40.0060654,  -70.5567703,   20.0634422
      5,  -40.4728966,  -70.5567703,   20.0634422
      6,  -40.9397278,  -70.5567703,   20.0634422
      7,  -41.4065628,  -70.5567703,   20.0634422
      8,   -41.873394,  -70.5567703,   20.0634422
      9,  -38.6055679,  -70.5567703,   19.5618553
     10,  -39.0723991,  -70.5567703,   19.5618553
     11,  -39.5392342,  -70.5567703,   19.5618553
     12,  -40.0060654,  -70.5567703,   19.5618553
     13,  -40.4728966,  -70.5567703,   19.5618553
     14,  -40.9397278,  -70.5567703,   19.5618553
     15,  -41.4065628,  -70.5567703,   19.5618553
     16,   -41.873394,  -70.5567703,   19.5618553
     17,  -38.6055679,  -70.5567703,   19.0602703
     18,  -39.0723991,  -70.5567703,   19.0602703
     19,  -39.5392342,  -70.5567703,   19.0602703
     20,  -40.0060654,  -70.5567703,   19.0602703
** ... 9164 like lines cut
*Element, type=C3D8R
   1,  329,  330,  338,  337,    1,    2,   10,    9
   2,  330,  331,  339,  338,    2,    3,   11,   10
   3,  331,  332,  340,  339,    3,    4,   12,   11
   4,  332,  333,  341,  340,    4,    5,   13,   12
   5,  333,  334,  342,  341,    5,    6,   14,   13
   6,  334,  335,  343,  342,    6,    7,   15,   14
   7,  335,  336,  344,  343,    7,    8,   16,   15
   8,  337,  338,  346,  345,    9,   10,   18,   17
   9,  338,  339,  347,  346,   10,   11,   19,   18
  10,  339,  340,  348,  347,   11,   12,   20,   19
  11,  340,  341,  349,  348,   12,   13,   21,   20
  12,  341,  342,  350,  349,   13,   14,   22,   21
  13,  342,  343,  351,  350,   14,   15,   23,   22
  14,  343,  344,  352,  351,   15,   16,   24,   23
  15,  345,  346,  354,  353,   17,   18,   26,   25
  16,  346,  347,  355,  354,   18,   19,   27,   26
  17,  347,  348,  356,  355,   19,   20,   28,   27
  18,  348,  349,  357,  356,   20,   21,   29,   28
  19,  349,  350,  358,  357,   21,   22,   30,   29
  20,  350,  351,  359,  358,   22,   23,   31,   30
** ... 7540 like lines cut
*Elset, elset=_PickedSet4, internal
 2802, 2806, 2809, 2813, 2816, 2820, 2823, 2827, 2830, 2834, 2837, 2841, 2844, 2848, 2851, 2855
 2858, 2862, 2865, 2869, 2872, 2876, 2879, 2883, 2886, 2890, 2893, 2897, 2900, 2904, 2907, 2911
 2914, 2918, 2921, 2925, 2928, 2932, 2935, 2939, 2942, 2946, 2949, 2953, 2956, 2960, 2963, 2967
 2970, 2974, 2977, 2981, 2984, 2988, 2991, 2995, 2998, 3002, 3005, 3009, 3012, 3016, 3019, 3023
 3026, 3030, 3033, 3037, 3040, 3044, 3047, 3051, 3054, 3058, 3061, 3065, 3068, 3072, 3075, 3079
 3081, 3084, 3087, 3088, 3091, 3094, 3095, 3098, 3101, 3102, 3105, 3108, 3109, 3112, 3115, 3116
 3119, 3122, 3123, 3126, 3129, 3130, 3133, 3136, 3137, 3140, 3143, 3144, 3147, 3150, 3151, 3154
 3157, 3158, 3161, 3164, 3165, 3168, 3171, 3172, 3175, 3178, 3179, 3182, 3185, 3186, 3189, 3192
 3193, 3196, 3199, 3200, 3203, 3206, 3207, 3210, 3213, 3214, 3217, 3220, 3221, 3224, 3227, 3228
 3231, 3234, 3235, 3238, 3241, 3242, 3245, 3248, 3249, 3252, 3255, 3256, 3259, 3262, 3263, 3266
 3269, 3270, 3273, 3276, 3277, 3280, 3283, 3284, 3287, 3290, 3291, 3294, 3297, 3298, 3301, 3304
 3305, 3308, 3311, 3312, 3315, 3318, 3319, 3322, 3325, 3326, 3329, 3332, 3333, 3336, 3339, 3340
 3343, 3346, 3347, 3350, 3353, 3354, 3357, 3360, 3642, 3646, 3649, 3653, 3656, 3660, 3663, 3667
 3670, 3674, 3677, 3681, 3684, 3688, 3691, 3695, 3698, 3702, 3705, 3709, 3712, 3716, 3719, 3723
 3726, 3730, 3733, 3737, 3740, 3744, 3747, 3751, 3754, 3758, 3761, 3765, 3768, 3772, 3775, 3779
 3782, 3786, 3789, 3793, 3796, 3800, 3803, 3807, 3810, 3814, 3817, 3821, 3824, 3828, 3831, 3835
 3838, 3842, 3845, 3849, 3852, 3856, 3859, 3863, 3866, 3870, 3873, 3877, 3880, 3884, 3887, 3891
 3894, 3898, 3901, 3905, 3908, 3912, 3915, 3919, 4201, 4204, 4207, 4208, 4211, 4214, 4215, 4218
 4221, 4222, 4225, 4228, 4229, 4232, 4235, 4236, 4239, 4242, 4243, 4246, 4249, 4250, 4253, 4256
 4257, 4260, 4263, 4264, 4267, 4270, 4271, 4274, 4277, 4278, 4281, 4284, 4285, 4288, 4291, 4292
** ... 10 like lines cut
*Elset, elset=_PickedSet5, internal
 2522, 2526, 2529, 2533, 2536, 2540, 2543, 2547, 2550, 2554, 2557, 2561, 2564, 2568, 2571, 2575
 2578, 2582, 2585, 2589, 2592, 2596, 2599, 2603, 2606, 2610, 2613, 2617, 2620, 2624, 2627, 2631
 2634, 2638, 2641, 2645, 2648, 2652, 2655, 2659, 2662, 2666, 2669, 2673, 2676, 2680, 2683, 2687
 2690, 2694, 2697, 2701, 2704, 2708, 2711, 2715, 2718, 2722, 2725, 2729, 2732, 2736, 2739, 2743
 2746, 2750, 2753, 2757, 2760, 2764, 2767, 2771, 2774, 2778, 2781, 2785, 2788, 2792, 2795, 2799
 4762, 4766, 4769, 4773, 4776, 4780, 4783, 4787, 4790, 4794, 4797, 4801, 4804, 4808, 4811, 4815
 4818, 4822, 4825, 4829, 4832, 4836, 4839, 4843, 4846, 4850, 4853, 4857, 4860, 4864, 4867, 4871
 4874, 4878, 4881, 4885, 4888, 4892, 4895, 4899, 4902, 4906, 4909, 4913, 4916, 4920, 4923, 4927
 4930, 4934, 4937, 4941, 4944, 4948, 4951, 4955, 4958, 4962, 4965, 4969, 4972, 4976, 4979, 4983
 4986, 4990, 4993, 4997, 5000, 5004, 5007, 5011, 5014, 5018, 5021, 5025, 5028, 5032, 5035, 5039
*Elset, elset=_PickedSet6, internal
 2803, 2804, 2805, 2810, 2811, 2812, 2817, 2818, 2819, 2824, 2825, 2826, 2831, 2832, 2833, 2838
 2839, 2840, 2845, 2846, 2847, 2852, 2853, 2854, 2859, 2860, 2861, 2866, 2867, 2868, 2873, 2874
 2875, 2880, 2881, 2882, 2887, 2888, 2889, 2894, 2895, 2896, 2901, 2902, 2903, 2908, 2909, 2910
 2915, 2916, 2917, 2922, 2923, 2924, 2929, 2930, 2931, 2936, 2937, 2938, 2943, 2944, 2945, 2950
 2951, 2952, 2957, 2958, 2959, 2964, 2965, 2966, 2971, 2972, 2973, 2978, 2979, 2980, 2985, 2986
 2987, 2992, 2993, 2994, 2999, 3000, 3001, 3006, 3007, 3008, 3013, 3014, 3015, 3020, 3021, 3022
 3027, 3028, 3029, 3034, 3035, 3036, 3041, 3042, 3043, 3048, 3049, 3050, 3055, 3056, 3057, 3062
 3063, 3064, 3069, 3070, 3071, 3076, 3077, 3078, 3361, 3363, 3365, 3367, 3368, 3370, 3372, 3374
 3375, 3377, 3379, 3381, 3382, 3384, 3386, 3388, 3389, 3391, 3393, 3395, 3396, 3398, 3400, 3402
 3403, 3405, 3407, 3409, 3410, 3412, 3414, 3416, 3417, 3419, 3421, 3423, 3424, 3426, 3428, 3430
 3431, 3433, 3435, 3437, 3438, 3440, 3442, 3444, 3445, 3447, 3449, 3451, 3452, 3454, 3456, 3458
 3459, 3461, 3463, 3465, 3466, 3468, 3470, 3472, 3473, 3475, 3477, 3479, 3480, 3482, 3484, 3486
 3487, 3489, 3491, 3493, 3494, 3496, 3498, 3500, 3501, 3503, 3505, 3507, 3508, 3510, 3512, 3514
 3515, 3517, 3519, 3521, 3522, 3524, 3526, 3528, 3529, 3531, 3533, 3535, 3536, 3538, 3540, 3542
 3543, 3545, 3547, 3549, 3550, 3552, 3554, 3556, 3557, 3559, 3561, 3563, 3564, 3566, 3568, 3570
 3571, 3573, 3575, 3577, 3578, 3580, 3582, 3584, 3585, 3587, 3589, 3591, 3592, 3594, 3596, 3598
 3599, 3601, 3603, 3605, 3606, 3608, 3610, 3612, 3613, 3615, 3617, 3619, 3620, 3622, 3624, 3626
 3627, 3629, 3631, 3633, 3634, 3636, 3638, 3640, 3641, 3643, 3645, 3647, 3648, 3650, 3652, 3654
 3655, 3657, 3659, 3661, 3662, 3664, 3666, 3668, 3669, 3671, 3673, 3675, 3676, 3678, 3680, 3682
 3683, 3685, 3687, 3689, 3690, 3692, 3694, 3696, 3697, 3699, 3701, 3703, 3704, 3706, 3708, 3710
** ... 25 like lines cut
*Elset, elset=_PickedSet7, internal
    1,    2,    3,    4,    5,    6,    7,    8,    9,   10,   11,   12,   13,   14,   15,   16
   17,   18,   19,   20,   21,   22,   23,   24,   25,   26,   27,   28,   29,   30,   31,   32
   33,   34,   35,   36,   37,   38,   39,   40,   41,   42,   43,   44,   45,   46,   47,   48
   49,   50,   51,   52,   53,   54,   55,   56,   57,   58,   59,   60,   61,   62,   63,   64
   65,   66,   67,   68,   69,   70,   71,   72,   73,   74,   75,   76,   77,   78,   79,   80
   81,   82,   83,   84,   85,   86,   87,   88,   89,   90,   91,   92,   93,   94,   95,   96
   97,   98,   99,  100,  101,  102,  103,  104,  105,  106,  107,  108,  109,  110,  111,  112
  113,  114,  115,  116,  117,  118,  119,  120,  121,  122,  123,  124,  125,  126,  127,  128
  129,  130,  131,  132,  133,  134,  135,  136,  137,  138,  139,  140,  141,  142,  143,  144
  145,  146,  147,  148,  149,  150,  151,  152,  153,  154,  155,  156,  157,  158,  159,  160
  161,  162,  163,  164,  165,  166,  167,  168,  169,  170,  171,  172,  173,  174,  175,  176
  177,  178,  179,  180,  181,  182,  183,  184,  185,  186,  187,  188,  189,  190,  191,  192
  193,  194,  195,  196,  197,  198,  199,  200,  201,  202,  203,  204,  205,  206,  207,  208
  209,  210,  211,  212,  213,  214,  215,  216,  217,  218,  219,  220,  221,  222,  223,  224
  225,  226,  227,  228,  229,  230,  231,  232,  233,  234,  235,  236,  237,  238,  239,  240
  241,  242,  243,  244,  245,  246,  247,  248,  249,  250,  251,  252,  253,  254,  255,  256
  257,  258,  259,  260,  261,  262,  263,  264,  265,  266,  267,  268,  269,  270,  271,  272
  273,  274,  275,  276,  277,  278,  279,  280,  281,  282,  283,  284,  285,  286,  287,  288
  289,  290,  291,  292,  293,  294,  295,  296,  297,  298,  299,  300,  301,  302,  303,  304
  305,  306,  307,  308,  309,  310,  311,  312,  313,  314,  315,  316,  317,  318,  319,  320
** ... 293 like lines cut
*Elset, elset=_PickedSet8, internal
 2523, 2524, 2525, 2530, 2531, 2532, 2537, 2538, 2539, 2544, 2545, 2546, 2551, 2552, 2553, 2558
 2559, 2560, 2565, 2566, 2567, 2572, 2573, 2574, 2579, 2580, 2581, 2586, 2587, 2588, 2593, 2594
 2595, 2600, 2601, 2602, 2607, 2608, 2609, 2614, 2615, 2616, 2621, 2622, 2623, 2628, 2629, 2630
 2635, 2636, 2637, 2642, 2643, 2644, 2649, 2650, 2651, 2656, 2657, 2658, 2663, 2664, 2665, 2670
 2671, 2672, 2677, 2678, 2679, 2684, 2685, 2686, 2691, 2692, 2693, 2698, 2699, 2700, 2705, 2706
 2707, 2712, 2713, 2714, 2719, 2720, 2721, 2726, 2727, 2728, 2733, 2734, 2735, 2740, 2741, 2742
 2747, 2748, 2749, 2754, 2755, 2756, 2761, 2762, 2763, 2768, 2769, 2770, 2775, 2776, 2777, 2782
 2783, 2784, 2789, 2790, 2791, 2796, 2797, 2798, 2801, 2807, 2808, 2814, 2815, 2821, 2822, 2828
 2829, 2835, 2836, 2842, 2843, 2849, 2850, 2856, 2857, 2863, 2864, 2870, 2871, 2877, 2878, 2884
 2885, 2891, 2892, 2898, 2899, 2905, 2906, 2912, 2913, 2919, 2920, 2926, 2927, 2933, 2934, 2940
 2941, 2947, 2948, 2954, 2955, 2961, 2962, 2968, 2969, 2975, 2976, 2982, 2983, 2989, 2990, 2996
 2997, 3003, 3004, 3010, 3011, 3017, 3018, 3024, 3025, 3031, 3032, 3038, 3039, 3045, 3046, 3052
 3053, 3059, 3060, 3066, 3067, 3073, 3074, 3080, 3083, 3085, 3090, 3092, 3097, 3099, 3104, 3106
 3111, 3113, 3118, 3120, 3125, 3127, 3132, 3134, 3139, 3141, 3146, 3148, 3153, 3155, 3160, 3162
 3167, 3169, 3174, 3176, 3181, 3183, 3188, 3190, 3195, 3197, 3202, 3204, 3209, 3211, 3216, 3218
 3223, 3225, 3230, 3232, 3237, 3239, 3244, 3246, 3251, 3253, 3258, 3260, 3265, 3267, 3272, 3274
 3279, 3281, 3286, 3288, 3293, 3295, 3300, 3302, 3307, 3309, 3314, 3316, 3321, 3323, 3328, 3330
 3335, 3337, 3342, 3344, 3349, 3351, 3356, 3358, 3362, 3366, 3369, 3373, 3376, 3380, 3383, 3387
 3390, 3394, 3397, 3401, 3404, 3408, 3411, 3415, 3418, 3422, 3425, 3429, 3432, 3436, 3439, 3443
 3446, 3450, 3453, 3457, 3460, 3464, 3467, 3471, 3474, 3478, 3481, 3485, 3488, 3492, 3495, 3499
** ... 25 like lines cut
*Elset, elset=_PickedSet9, internal
 2243, 2244, 2245, 2250, 2251, 2252, 2257, 2258, 2259, 2264, 2265, 2266, 2271, 2272, 2273, 2278
 2279, 2280, 2285, 2286, 2287, 2292, 2293, 2294, 2299, 2300, 2301, 2306, 2307, 2308, 2313, 2314
 2315, 2320, 2321, 2322, 2327, 2328, 2329, 2334, 2335, 2336, 2341, 2342, 2343, 2348, 2349, 2350
 2355, 2356, 2357, 2362, 2363, 2364, 2369, 2370, 2371, 2376, 2377, 2378, 2383, 2384, 2385, 2390
 2391, 2392, 2397, 2398, 2399, 2404, 2405, 2406, 2411, 2412, 2413, 2418, 2419, 2420, 2425, 2426
 2427, 2432, 2433, 2434, 2439, 2440, 2441, 2446, 2447, 2448, 2453, 2454, 2455, 2460, 2461, 2462
 2467, 2468, 2469, 2474, 2475, 2476, 2481, 2482, 2483, 2488, 2489, 2490, 2495, 2496, 2497, 2502
 2503, 2504, 2509, 2510, 2511, 2516, 2517, 2518, 2521, 2527, 2528, 2534, 2535, 2541, 2542, 2548
 2549, 2555, 2556, 2562, 2563, 2569, 2570, 2576, 2577, 2583, 2584, 2590, 2591, 2597, 2598, 2604
 2605, 2611, 2612, 2618, 2619, 2625, 2626, 2632, 2633, 2639, 2640, 2646, 2647, 2653, 2654, 2660
 2661, 2667, 2668, 2674, 2675, 2681, 2682, 2688, 2689, 2695, 2696, 2702, 2703, 2709, 2710, 2716
 2717, 2723, 2724, 2730, 2731, 2737, 2738, 2744, 2745, 2751, 2752, 2758, 2759, 2765, 2766, 2772
 2773, 2779, 2780, 2786, 2787, 2793, 2794, 2800, 3364, 3371, 3378, 3385, 3392, 3399, 3406, 3413
 3420, 3427, 3434, 3441, 3448, 3455, 3462, 3469, 3476, 3483, 3490, 3497, 3504, 3511, 3518, 3525
 3532, 3539, 3546, 3553, 3560, 3567, 3574, 3581, 3588, 3595, 3602, 3609, 3616, 3623, 3630, 3637
 3924, 3931, 3938, 3945, 3952, 3959, 3966, 3973, 3980, 3987, 3994, 4001, 4008, 4015, 4022, 4029
 4036, 4043, 4050, 4057, 4064, 4071, 4078, 4085, 4092, 4099, 4106, 4113, 4120, 4127, 4134, 4141
 4148, 4155, 4162, 4169, 4176, 4183, 4190, 4197, 4761, 4767, 4768, 4774, 4775, 4781, 4782, 4788
 4789, 4795, 4796, 4802, 4803, 4809, 4810, 4816, 4817, 4823, 4824, 4830, 4831, 4837, 4838, 4844
 4845, 4851, 4852, 4858, 4859, 4865, 4866, 4872, 4873, 4879, 4880, 4886, 4887, 4893, 4894, 4900
** ... 10 like lines cut
*Orientation, name=Ori-1
          1.,           0.,           0.,           0.,           0.,           1.
1, 0.
** Section: SEC_ANISO_08
*Solid Section, elset=_PickedSet7, orientation=Ori-1, material=MAT_ANISO_08
,
** Section: SEC_ANISO_10
*Solid Section, elset=_PickedSet9, orientation=Ori-1, material=MAT_ANISO_10
,
** Section: SEC_ANISO_05
*Solid Section, elset=_PickedSet5, orientation=Ori-1, material=MAT_ANISO_05
,
** Section: SEC_ANISO_09
*Solid Section, elset=_PickedSet8, orientation=Ori-1, material=MAT_ANISO_09
,
** Section: SEC_ANISO_04
*Solid Section, elset=_PickedSet4, orientation=Ori-1, material=MAT_ANISO_04
,
** Section: SEC_ANISO_07
*Solid Section, elset=_PickedSet6, orientation=Ori-1, material=MAT_ANISO_07
,
*End Part
**
**
** ASSEMBLY
**
*Assembly, name=Assembly
**
*Instance, name=BioInst, part=Biofilm
          0.,           0., 18.1703414916992
*End Instance
**
*Nset, nset=_PickedSet3, internal, instance=BioInst
  321,  322,  323,  324,  325,  326,  327,  328,  649,  650,  651,  652,  653,  654,  655,  656
  977,  978,  979,  980,  981,  982,  983,  984, 1305, 1306, 1307, 1308, 1309, 1310, 1311, 1312
 1633, 1634, 1635, 1636, 1637, 1638, 1639, 1640, 1961, 1962, 1963, 1964, 1965, 1966, 1967, 1968
 2289, 2290, 2291, 2292, 2293, 2294, 2295, 2296, 2617, 2618, 2619, 2620, 2621, 2622, 2623, 2624
 2945, 2946, 2947, 2948, 2949, 2950, 2951, 2952, 3273, 3274, 3275, 3276, 3277, 3278, 3279, 3280
 3601, 3602, 3603, 3604, 3605, 3606, 3607, 3608, 3929, 3930, 3931, 3932, 3933, 3934, 3935, 3936
 4257, 4258, 4259, 4260, 4261, 4262, 4263, 4264, 4585, 4586, 4587, 4588, 4589, 4590, 4591, 4592
 4913, 4914, 4915, 4916, 4917, 4918, 4919, 4920, 5241, 5242, 5243, 5244, 5245, 5246, 5247, 5248
 5569, 5570, 5571, 5572, 5573, 5574, 5575, 5576, 5897, 5898, 5899, 5900, 5901, 5902, 5903, 5904
 6225, 6226, 6227, 6228, 6229, 6230, 6231, 6232, 6553, 6554, 6555, 6556, 6557, 6558, 6559, 6560
 6881, 6882, 6883, 6884, 6885, 6886, 6887, 6888, 7209, 7210, 7211, 7212, 7213, 7214, 7215, 7216
 7537, 7538, 7539, 7540, 7541, 7542, 7543, 7544, 7865, 7866, 7867, 7868, 7869, 7870, 7871, 7872
 8193, 8194, 8195, 8196, 8197, 8198, 8199, 8200, 8521, 8522, 8523, 8524, 8525, 8526, 8527, 8528
 8849, 8850, 8851, 8852, 8853, 8854, 8855, 8856, 9177, 9178, 9179, 9180, 9181, 9182, 9183, 9184
*Elset, elset=_PickedSet3, internal, instance=BioInst
  274,  275,  276,  277,  278,  279,  280,  554,  555,  556,  557,  558,  559,  560,  834,  835
  836,  837,  838,  839,  840, 1114, 1115, 1116, 1117, 1118, 1119, 1120, 1394, 1395, 1396, 1397
 1398, 1399, 1400, 1674, 1675, 1676, 1677, 1678, 1679, 1680, 1954, 1955, 1956, 1957, 1958, 1959
 1960, 2234, 2235, 2236, 2237, 2238, 2239, 2240, 2514, 2515, 2516, 2517, 2518, 2519, 2520, 2794
 2795, 2796, 2797, 2798, 2799, 2800, 3074, 3075, 3076, 3077, 3078, 3079, 3080, 3354, 3355, 3356
 3357, 3358, 3359, 3360, 3634, 3635, 3636, 3637, 3638, 3639, 3640, 3914, 3915, 3916, 3917, 3918
 3919, 3920, 4194, 4195, 4196, 4197, 4198, 4199, 4200, 4474, 4475, 4476, 4477, 4478, 4479, 4480
 4754, 4755, 4756, 4757, 4758, 4759, 4760, 5034, 5035, 5036, 5037, 5038, 5039, 5040, 5314, 5315
 5316, 5317, 5318, 5319, 5320, 5594, 5595, 5596, 5597, 5598, 5599, 5600, 5874, 5875, 5876, 5877
 5878, 5879, 5880, 6154, 6155, 6156, 6157, 6158, 6159, 6160, 6434, 6435, 6436, 6437, 6438, 6439
 6440, 6714, 6715, 6716, 6717, 6718, 6719, 6720, 6994, 6995, 6996, 6997, 6998, 6999, 7000, 7274
 7275, 7276, 7277, 7278, 7279, 7280, 7554, 7555, 7556, 7557, 7558, 7559, 7560
*Elset, elset=__PickedSurf4_S3, internal, instance=BioInst
    1,    2,    3,    4,    5,    6,    7,  281,  282,  283,  284,  285,  286,  287,  561,  562
  563,  564,  565,  566,  567,  841,  842,  843,  844,  845,  846,  847, 1121, 1122, 1123, 1124
 1125, 1126, 1127, 1401, 1402, 1403, 1404, 1405, 1406, 1407, 1681, 1682, 1683, 1684, 1685, 1686
 1687, 1961, 1962, 1963, 1964, 1965, 1966, 1967, 2241, 2242, 2243, 2244, 2245, 2246, 2247, 2521
 2522, 2523, 2524, 2525, 2526, 2527, 2801, 2802, 2803, 2804, 2805, 2806, 2807, 3081, 3082, 3083
 3084, 3085, 3086, 3087, 3361, 3362, 3363, 3364, 3365, 3366, 3367, 3641, 3642, 3643, 3644, 3645
 3646, 3647, 3921, 3922, 3923, 3924, 3925, 3926, 3927, 4201, 4202, 4203, 4204, 4205, 4206, 4207
 4481, 4482, 4483, 4484, 4485, 4486, 4487, 4761, 4762, 4763, 4764, 4765, 4766, 4767, 5041, 5042
 5043, 5044, 5045, 5046, 5047, 5321, 5322, 5323, 5324, 5325, 5326, 5327, 5601, 5602, 5603, 5604
 5605, 5606, 5607, 5881, 5882, 5883, 5884, 5885, 5886, 5887, 6161, 6162, 6163, 6164, 6165, 6166
 6167, 6441, 6442, 6443, 6444, 6445, 6446, 6447, 6721, 6722, 6723, 6724, 6725, 6726, 6727, 7001
 7002, 7003, 7004, 7005, 7006, 7007, 7281, 7282, 7283, 7284, 7285, 7286, 7287
*Surface, type=ELEMENT, name=_PickedSurf4, internal
__PickedSurf4_S3, S3
*End Assembly
**
** MATERIALS
**
*Material, name=MAT_ANISO_00
*Elastic, type=ENGINEERING CONSTANTS
 9.66586e+09, 4.83293e+09, 4.83293e+09,         0.3,         0.3,         0.3, 3.71764e+09, 3.71764e+09
 1.85882e+09,
*Material, name=MAT_ANISO_01
*Elastic, type=ENGINEERING CONSTANTS
 9.01552e+09, 4.50776e+09, 4.50776e+09,         0.3,         0.3,         0.3, 3.46751e+09, 3.46751e+09
 1.73375e+09,
*Material, name=MAT_ANISO_02
*Elastic, type=ENGINEERING CONSTANTS
 8.38908e+09, 4.19454e+09, 4.19454e+09,         0.3,         0.3,         0.3, 3.22657e+09, 3.22657e+09
 1.61329e+09,
*Material, name=MAT_ANISO_03
*Elastic, type=ENGINEERING CONSTANTS
 7.78656e+09, 3.89328e+09, 3.89328e+09,         0.3,         0.3,         0.3, 2.99483e+09, 2.99483e+09
 1.49742e+09,
*Material, name=MAT_ANISO_04
*Elastic, type=ENGINEERING CONSTANTS
 7.20795e+09, 3.60398e+09, 3.60398e+09,         0.3,         0.3,         0.3, 2.77229e+09, 2.77229e+09
 1.38614e+09,
*Material, name=MAT_ANISO_05
*Elastic, type=ENGINEERING CONSTANTS
 6.65326e+09, 3.32663e+09, 3.32663e+09,         0.3,         0.3,         0.3, 2.55894e+09, 2.55894e+09
 1.27947e+09,
*Material, name=MAT_ANISO_06
*Elastic, type=ENGINEERING CONSTANTS
 6.12247e+09, 3.06123e+09, 3.06123e+09,         0.3,         0.3,         0.3,  2.3548e+09,  2.3548e+09
  1.1774e+09,
*Material, name=MAT_ANISO_07
*Elastic, type=ENGINEERING CONSTANTS
 5.6156e+09,  2.8078e+09,  2.8078e+09,         0.3,         0.3,         0.3, 2.15984e+09, 2.15984e+09
 1.07992e+09,
*Material, name=MAT_ANISO_08
*Elastic, type=ENGINEERING CONSTANTS
 5.13263e+09, 2.56632e+09, 2.56632e+09,         0.3,         0.3,         0.3, 1.97409e+09, 1.97409e+09
 9.87045e+08,
*Material, name=MAT_ANISO_09
*Elastic, type=ENGINEERING CONSTANTS
 4.67358e+09, 2.33679e+09, 2.33679e+09,         0.3,         0.3,         0.3, 1.79753e+09, 1.79753e+09
 8.98766e+08,
*Material, name=MAT_ANISO_10
*Elastic, type=ENGINEERING CONSTANTS
 4.23844e+09, 2.11922e+09, 2.11922e+09,         0.3,         0.3,         0.3, 1.63017e+09, 1.63017e+09
 8.15085e+08,
*Material, name=MAT_ANISO_11
*Elastic, type=ENGINEERING CONSTANTS
 3.82722e+09, 1.91361e+09, 1.91361e+09,         0.3,         0.3,         0.3, 1.47201e+09, 1.47201e+09
 7.36003e+08,
*Material, name=MAT_ANISO_12
*Elastic, type=ENGINEERING CONSTANTS
 3.4399e+09, 1.71995e+09, 1.71995e+09,         0.3,         0.3,         0.3, 1.32304e+09, 1.32304e+09
 6.61519e+08,
*Material, name=MAT_ANISO_13
*Elastic, type=ENGINEERING CONSTANTS
 3.0765e+09, 1.53825e+09, 1.53825e+09,         0.3,         0.3,         0.3, 1.18327e+09, 1.18327e+09
 5.91634e+08,
*Material, name=MAT_ANISO_14
*Elastic, type=ENGINEERING CONSTANTS
 2.737e+09,  1.3685e+09,  1.3685e+09,         0.3,         0.3,         0.3, 1.05269e+09, 1.05269e+09
 5.26347e+08,
*Material, name=MAT_ANISO_15
*Elastic, type=ENGINEERING CONSTANTS
 2.42142e+09, 1.21071e+09, 1.21071e+09,         0.3,         0.3,         0.3, 9.31316e+08, 9.31316e+08
 4.65658e+08,
*Material, name=MAT_ANISO_16
*Elastic, type=ENGINEERING CONSTANTS
 2.12975e+09, 1.06488e+09, 1.06488e+09,         0.3,         0.3,         0.3, 8.19136e+08, 8.19136e+08
 4.09568e+08,
*Material, name=MAT_ANISO_17
*Elastic, type=ENGINEERING CONSTANTS
 1.862e+09, 9.30998e+08, 9.30998e+08,         0.3,         0.3,         0.3, 7.16153e+08, 7.16153e+08
 3.58076e+08,
*Material, name=MAT_ANISO_18
*Elastic, type=ENGINEERING CONSTANTS
 1.61815e+09, 8.09076e+08, 8.09076e+08,         0.3,         0.3,         0.3, 6.22366e+08, 6.22366e+08
 3.11183e+08,
*Material, name=MAT_ANISO_19
*Elastic, type=ENGINEERING CONSTANTS
 1.39822e+09, 6.99109e+08, 6.99109e+08,         0.3,         0.3,         0.3, 5.37776e+08, 5.37776e+08
 2.68888e+08,
**
** BOUNDARY CONDITIONS
**
** Name: FIX_BOT Type: Displacement/Rotation
*Boundary
_PickedSet3, 1, 1
_PickedSet3, 2, 2
_PickedSet3, 3, 3
** ----------------------------------------------------------------
**
** STEP: LOAD
**
*Step, name=LOAD, nlgeom=NO
*Static
0.1, 1., 1e-05, 1.
**
** LOADS
**
** Name: PRESS   Type: Pressure
*Dsload
_PickedSurf4, P, 1e+06
**
** OUTPUT REQUESTS
**
*Restart, write, frequency=0
**
** FIELD OUTPUT: F-Output-1
**
*Output, field, variable=PRESELECT
**
** HISTORY OUTPUT: H-Output-1
**
*Output, history, variable=PRESELECT
*End Step
