*Heading
 OpenJaw biofilm P1_Tooth_31  geom=slit  beta=0.50
** Job name: OJ_T31_b050 Model name: OpenJawBio_T31
** Generated by: Abaqus/CAE 2024
*Preprint, echo=NO, model=NO, history=NO, contact=NO
**
** PARTS
**
*Part, name=Biofilm
*Node
      1,  -34.2710381,   -82.920433,   18.9359074
      2,   -34.775219,   -82.920433,   18.9359074
      3,  -35.2794037,   -82.920433,   18.9359074
      4,  -35.7835884,   -82.920433,   18.9359074
      5,  -36.2877693,   -82.920433,   18.9359074
      6,   -36.791954,   -82.920433,   18.9359074
      7,  -37.2961388,   -82.920433,   18.9359074
      8,  -37.8003197,   -82.920433,   18.9359074
      9,  -34.2710381,   -82.920433,   18.4099102
     10,   -34.775219,   -82.920433,   18.4099102
     11,  -35.2794037,   -82.920433,   18.4099102
     12,  -35.7835884,   -82.920433,   18.4099102
     13,  -36.2877693,   -82.920433,   18.4099102
     14,   -36.791954,   -82.920433,   18.4099102
     15,  -37.2961388,   -82.920433,   18.4099102
     16,  -37.8003197,   -82.920433,   18.4099102
     17,  -34.2710381,   -82.920433,    17.883913
     18,   -34.775219,   -82.920433,    17.883913
     19,  -35.2794037,   -82.920433,    17.883913
     20,  -35.7835884,   -82.920433,    17.883913
** ... 8268 like lines cut
*Element, type=C3D8R
   1,  297,  298,  306,  305,    1,    2,   10,    9
   2,  298,  299,  307,  306,    2,    3,   11,   10
   3,  299,  300,  308,  307,    3,    4,   12,   11
   4,  300,  301,  309,  308,    4,    5,   13,   12
   5,  301,  302,  310,  309,    5,    6,   14,   13
   6,  302,  303,  311,  310,    6,    7,   15,   14
   7,  303,  304,  312,  311,    7,    8,   16,   15
   8,  305,  306,  314,  313,    9,   10,   18,   17
   9,  306,  307,  315,  314,   10,   11,   19,   18
  10,  307,  308,  316,  315,   11,   12,   20,   19
  11,  308,  309,  317,  316,   12,   13,   21,   20
  12,  309,  310,  318,  317,   13,   14,   22,   21
  13,  310,  311,  319,  318,   14,   15,   23,   22
  14,  311,  312,  320,  319,   15,   16,   24,   23
  15,  313,  314,  322,  321,   17,   18,   26,   25
  16,  314,  315,  323,  322,   18,   19,   27,   26
  17,  315,  316,  324,  323,   19,   20,   28,   27
  18,  316,  317,  325,  324,   20,   21,   29,   28
  19,  317,  318,  326,  325,   21,   22,   30,   29
  20,  318,  319,  327,  326,   22,   23,   31,   30
** ... 6784 like lines cut
*Elset, elset=_PickedSet4, internal
 2522, 2526, 2529, 2533, 2536, 2540, 2543, 2547, 2550, 2554, 2557, 2561, 2564, 2568, 2571, 2575
 2578, 2582, 2585, 2589, 2592, 2596, 2599, 2603, 2606, 2610, 2613, 2617, 2620, 2624, 2627, 2631
 2634, 2638, 2641, 2645, 2648, 2652, 2655, 2659, 2662, 2666, 2669, 2673, 2676, 2680, 2683, 2687
 2690, 2694, 2697, 2701, 2704, 2708, 2711, 2715, 2718, 2722, 2725, 2729, 2732, 2736, 2739, 2743
 2746, 2750, 2753, 2757, 2760, 2764, 2767, 2771, 2773, 2776, 2779, 2780, 2783, 2786, 2787, 2790
 2793, 2794, 2797, 2800, 2801, 2804, 2807, 2808, 2811, 2814, 2815, 2818, 2821, 2822, 2825, 2828
 2829, 2832, 2835, 2836, 2839, 2842, 2843, 2846, 2849, 2850, 2853, 2856, 2857, 2860, 2863, 2864
 2867, 2870, 2871, 2874, 2877, 2878, 2881, 2884, 2885, 2888, 2891, 2892, 2895, 2898, 2899, 2902
 2905, 2906, 2909, 2912, 2913, 2916, 2919, 2920, 2923, 2926, 2927, 2930, 2933, 2934, 2937, 2940
 2941, 2944, 2947, 2948, 2951, 2954, 2955, 2958, 2961, 2962, 2965, 2968, 2969, 2972, 2975, 2976
 2979, 2982, 2983, 2986, 2989, 2990, 2993, 2996, 2997, 3000, 3003, 3004, 3007, 3010, 3011, 3014
 3017, 3018, 3021, 3024, 3278, 3282, 3285, 3289, 3292, 3296, 3299, 3303, 3306, 3310, 3313, 3317
 3320, 3324, 3327, 3331, 3334, 3338, 3341, 3345, 3348, 3352, 3355, 3359, 3362, 3366, 3369, 3373
 3376, 3380, 3383, 3387, 3390, 3394, 3397, 3401, 3404, 3408, 3411, 3415, 3418, 3422, 3425, 3429
 3432, 3436, 3439, 3443, 3446, 3450, 3453, 3457, 3460, 3464, 3467, 3471, 3474, 3478, 3481, 3485
 3488, 3492, 3495, 3499, 3502, 3506, 3509, 3513, 3516, 3520, 3523, 3527, 3781, 3784, 3787, 3788
 3791, 3794, 3795, 3798, 3801, 3802, 3805, 3808, 3809, 3812, 3815, 3816, 3819, 3822, 3823, 3826
 3829, 3830, 3833, 3836, 3837, 3840, 3843, 3844, 3847, 3850, 3851, 3854, 3857, 3858, 3861, 3864
 3865, 3868, 3871, 3872, 3875, 3878, 3879, 3882, 3885, 3886, 3889, 3892, 3893, 3896, 3899, 3900
 3903, 3906, 3907, 3910, 3913, 3914, 3917, 3920, 3921, 3924, 3927, 3928, 3931, 3934, 3935, 3938
** ... 7 like lines cut
*Elset, elset=_PickedSet5, internal
 2270, 2274, 2277, 2281, 2284, 2288, 2291, 2295, 2298, 2302, 2305, 2309, 2312, 2316, 2319, 2323
 2326, 2330, 2333, 2337, 2340, 2344, 2347, 2351, 2354, 2358, 2361, 2365, 2368, 2372, 2375, 2379
 2382, 2386, 2389, 2393, 2396, 2400, 2403, 2407, 2410, 2414, 2417, 2421, 2424, 2428, 2431, 2435
 2438, 2442, 2445, 2449, 2452, 2456, 2459, 2463, 2466, 2470, 2473, 2477, 2480, 2484, 2487, 2491
 2494, 2498, 2501, 2505, 2508, 2512, 2515, 2519, 4286, 4290, 4293, 4297, 4300, 4304, 4307, 4311
 4314, 4318, 4321, 4325, 4328, 4332, 4335, 4339, 4342, 4346, 4349, 4353, 4356, 4360, 4363, 4367
 4370, 4374, 4377, 4381, 4384, 4388, 4391, 4395, 4398, 4402, 4405, 4409, 4412, 4416, 4419, 4423
 4426, 4430, 4433, 4437, 4440, 4444, 4447, 4451, 4454, 4458, 4461, 4465, 4468, 4472, 4475, 4479
 4482, 4486, 4489, 4493, 4496, 4500, 4503, 4507, 4510, 4514, 4517, 4521, 4524, 4528, 4531, 4535
*Elset, elset=_PickedSet6, internal
 2523, 2524, 2525, 2530, 2531, 2532, 2537, 2538, 2539, 2544, 2545, 2546, 2551, 2552, 2553, 2558
 2559, 2560, 2565, 2566, 2567, 2572, 2573, 2574, 2579, 2580, 2581, 2586, 2587, 2588, 2593, 2594
 2595, 2600, 2601, 2602, 2607, 2608, 2609, 2614, 2615, 2616, 2621, 2622, 2623, 2628, 2629, 2630
 2635, 2636, 2637, 2642, 2643, 2644, 2649, 2650, 2651, 2656, 2657, 2658, 2663, 2664, 2665, 2670
 2671, 2672, 2677, 2678, 2679, 2684, 2685, 2686, 2691, 2692, 2693, 2698, 2699, 2700, 2705, 2706
 2707, 2712, 2713, 2714, 2719, 2720, 2721, 2726, 2727, 2728, 2733, 2734, 2735, 2740, 2741, 2742
 2747, 2748, 2749, 2754, 2755, 2756, 2761, 2762, 2763, 2768, 2769, 2770, 3025, 3027, 3029, 3031
 3032, 3034, 3036, 3038, 3039, 3041, 3043, 3045, 3046, 3048, 3050, 3052, 3053, 3055, 3057, 3059
 3060, 3062, 3064, 3066, 3067, 3069, 3071, 3073, 3074, 3076, 3078, 3080, 3081, 3083, 3085, 3087
 3088, 3090, 3092, 3094, 3095, 3097, 3099, 3101, 3102, 3104, 3106, 3108, 3109, 3111, 3113, 3115
 3116, 3118, 3120, 3122, 3123, 3125, 3127, 3129, 3130, 3132, 3134, 3136, 3137, 3139, 3141, 3143
 3144, 3146, 3148, 3150, 3151, 3153, 3155, 3157, 3158, 3160, 3162, 3164, 3165, 3167, 3169, 3171
 3172, 3174, 3176, 3178, 3179, 3181, 3183, 3185, 3186, 3188, 3190, 3192, 3193, 3195, 3197, 3199
 3200, 3202, 3204, 3206, 3207, 3209, 3211, 3213, 3214, 3216, 3218, 3220, 3221, 3223, 3225, 3227
 3228, 3230, 3232, 3234, 3235, 3237, 3239, 3241, 3242, 3244, 3246, 3248, 3249, 3251, 3253, 3255
 3256, 3258, 3260, 3262, 3263, 3265, 3267, 3269, 3270, 3272, 3274, 3276, 3277, 3279, 3281, 3283
 3284, 3286, 3288, 3290, 3291, 3293, 3295, 3297, 3298, 3300, 3302, 3304, 3305, 3307, 3309, 3311
 3312, 3314, 3316, 3318, 3319, 3321, 3323, 3325, 3326, 3328, 3330, 3332, 3333, 3335, 3337, 3339
 3340, 3342, 3344, 3346, 3347, 3349, 3351, 3353, 3354, 3356, 3358, 3360, 3361, 3363, 3365, 3367
 3368, 3370, 3372, 3374, 3375, 3377, 3379, 3381, 3382, 3384, 3386, 3388, 3389, 3391, 3393, 3395
** ... 21 like lines cut
*Elset, elset=_PickedSet7, internal
    1,    2,    3,    4,    5,    6,    7,    8,    9,   10,   11,   12,   13,   14,   15,   16
   17,   18,   19,   20,   21,   22,   23,   24,   25,   26,   27,   28,   29,   30,   31,   32
   33,   34,   35,   36,   37,   38,   39,   40,   41,   42,   43,   44,   45,   46,   47,   48
   49,   50,   51,   52,   53,   54,   55,   56,   57,   58,   59,   60,   61,   62,   63,   64
   65,   66,   67,   68,   69,   70,   71,   72,   73,   74,   75,   76,   77,   78,   79,   80
   81,   82,   83,   84,   85,   86,   87,   88,   89,   90,   91,   92,   93,   94,   95,   96
   97,   98,   99,  100,  101,  102,  103,  104,  105,  106,  107,  108,  109,  110,  111,  112
  113,  114,  115,  116,  117,  118,  119,  120,  121,  122,  123,  124,  125,  126,  127,  128
  129,  130,  131,  132,  133,  134,  135,  136,  137,  138,  139,  140,  141,  142,  143,  144
  145,  146,  147,  148,  149,  150,  151,  152,  153,  154,  155,  156,  157,  158,  159,  160
  161,  162,  163,  164,  165,  166,  167,  168,  169,  170,  171,  172,  173,  174,  175,  176
  177,  178,  179,  180,  181,  182,  183,  184,  185,  186,  187,  188,  189,  190,  191,  192
  193,  194,  195,  196,  197,  198,  199,  200,  201,  202,  203,  204,  205,  206,  207,  208
  209,  210,  211,  212,  213,  214,  215,  216,  217,  218,  219,  220,  221,  222,  223,  224
  225,  226,  227,  228,  229,  230,  231,  232,  233,  234,  235,  236,  237,  238,  239,  240
  241,  242,  243,  244,  245,  246,  247,  248,  249,  250,  251,  252,  253,  254,  255,  256
  257,  258,  259,  260,  261,  262,  263,  264,  265,  266,  267,  268,  269,  270,  271,  272
  273,  274,  275,  276,  277,  278,  279,  280,  281,  282,  283,  284,  285,  286,  287,  288
  289,  290,  291,  292,  293,  294,  295,  296,  297,  298,  299,  300,  301,  302,  303,  304
  305,  306,  307,  308,  309,  310,  311,  312,  313,  314,  315,  316,  317,  318,  319,  320
** ... 271 like lines cut
*Elset, elset=_PickedSet8, internal
 2271, 2272, 2273, 2278, 2279, 2280, 2285, 2286, 2287, 2292, 2293, 2294, 2299, 2300, 2301, 2306
 2307, 2308, 2313, 2314, 2315, 2320, 2321, 2322, 2327, 2328, 2329, 2334, 2335, 2336, 2341, 2342
 2343, 2348, 2349, 2350, 2355, 2356, 2357, 2362, 2363, 2364, 2369, 2370, 2371, 2376, 2377, 2378
 2383, 2384, 2385, 2390, 2391, 2392, 2397, 2398, 2399, 2404, 2405, 2406, 2411, 2412, 2413, 2418
 2419, 2420, 2425, 2426, 2427, 2432, 2433, 2434, 2439, 2440, 2441, 2446, 2447, 2448, 2453, 2454
 2455, 2460, 2461, 2462, 2467, 2468, 2469, 2474, 2475, 2476, 2481, 2482, 2483, 2488, 2489, 2490
 2495, 2496, 2497, 2502, 2503, 2504, 2509, 2510, 2511, 2516, 2517, 2518, 2521, 2527, 2528, 2534
 2535, 2541, 2542, 2548, 2549, 2555, 2556, 2562, 2563, 2569, 2570, 2576, 2577, 2583, 2584, 2590
 2591, 2597, 2598, 2604, 2605, 2611, 2612, 2618, 2619, 2625, 2626, 2632, 2633, 2639, 2640, 2646
 2647, 2653, 2654, 2660, 2661, 2667, 2668, 2674, 2675, 2681, 2682, 2688, 2689, 2695, 2696, 2702
 2703, 2709, 2710, 2716, 2717, 2723, 2724, 2730, 2731, 2737, 2738, 2744, 2745, 2751, 2752, 2758
 2759, 2765, 2766, 2772, 2775, 2777, 2782, 2784, 2789, 2791, 2796, 2798, 2803, 2805, 2810, 2812
 2817, 2819, 2824, 2826, 2831, 2833, 2838, 2840, 2845, 2847, 2852, 2854, 2859, 2861, 2866, 2868
 2873, 2875, 2880, 2882, 2887, 2889, 2894, 2896, 2901, 2903, 2908, 2910, 2915, 2917, 2922, 2924
 2929, 2931, 2936, 2938, 2943, 2945, 2950, 2952, 2957, 2959, 2964, 2966, 2971, 2973, 2978, 2980
 2985, 2987, 2992, 2994, 2999, 3001, 3006, 3008, 3013, 3015, 3020, 3022, 3026, 3030, 3033, 3037
 3040, 3044, 3047, 3051, 3054, 3058, 3061, 3065, 3068, 3072, 3075, 3079, 3082, 3086, 3089, 3093
 3096, 3100, 3103, 3107, 3110, 3114, 3117, 3121, 3124, 3128, 3131, 3135, 3138, 3142, 3145, 3149
 3152, 3156, 3159, 3163, 3166, 3170, 3173, 3177, 3180, 3184, 3187, 3191, 3194, 3198, 3201, 3205
 3208, 3212, 3215, 3219, 3222, 3226, 3229, 3233, 3236, 3240, 3243, 3247, 3250, 3254, 3257, 3261
** ... 21 like lines cut
*Elset, elset=_PickedSet9, internal
 2020, 2027, 2034, 2041, 2048, 2055, 2062, 2069, 2076, 2083, 2090, 2097, 2104, 2111, 2118, 2125
 2132, 2139, 2146, 2153, 2160, 2167, 2174, 2181, 2188, 2195, 2202, 2209, 2216, 2223, 2230, 2237
 2244, 2251, 2258, 2265, 2269, 2275, 2276, 2282, 2283, 2289, 2290, 2296, 2297, 2303, 2304, 2310
 2311, 2317, 2318, 2324, 2325, 2331, 2332, 2338, 2339, 2345, 2346, 2352, 2353, 2359, 2360, 2366
 2367, 2373, 2374, 2380, 2381, 2387, 2388, 2394, 2395, 2401, 2402, 2408, 2409, 2415, 2416, 2422
 2423, 2429, 2430, 2436, 2437, 2443, 2444, 2450, 2451, 2457, 2458, 2464, 2465, 2471, 2472, 2478
 2479, 2485, 2486, 2492, 2493, 2499, 2500, 2506, 2507, 2513, 2514, 2520, 3028, 3035, 3042, 3049
 3056, 3063, 3070, 3077, 3084, 3091, 3098, 3105, 3112, 3119, 3126, 3133, 3140, 3147, 3154, 3161
 3168, 3175, 3182, 3189, 3196, 3203, 3210, 3217, 3224, 3231, 3238, 3245, 3252, 3259, 3266, 3273
 3532, 3539, 3546, 3553, 3560, 3567, 3574, 3581, 3588, 3595, 3602, 3609, 3616, 3623, 3630, 3637
 3644, 3651, 3658, 3665, 3672, 3679, 3686, 3693, 3700, 3707, 3714, 3721, 3728, 3735, 3742, 3749
 3756, 3763, 3770, 3777, 4285, 4291, 4292, 4298, 4299, 4305, 4306, 4312, 4313, 4319, 4320, 4326
 4327, 4333, 4334, 4340, 4341, 4347, 4348, 4354, 4355, 4361, 4362, 4368, 4369, 4375, 4376, 4382
 4383, 4389, 4390, 4396, 4397, 4403, 4404, 4410, 4411, 4417, 4418, 4424, 4425, 4431, 4432, 4438
 4439, 4445, 4446, 4452, 4453, 4459, 4460, 4466, 4467, 4473, 4474, 4480, 4481, 4487, 4488, 4494
 4495, 4501, 4502, 4508, 4509, 4515, 4516, 4522, 4523, 4529, 4530, 4536, 4540, 4547, 4554, 4561
 4568, 4575, 4582, 4589, 4596, 4603, 4610, 4617, 4624, 4631, 4638, 4645, 4652, 4659, 4666, 4673
 4680, 4687, 4694, 4701, 4708, 4715, 4722, 4729, 4736, 4743, 4750, 4757, 4764, 4771, 4778, 4785
*Orientation, name=Ori-1
          1.,           0.,           0.,           0.,           0.,           1.
1, 0.
** Section: SEC_ANISO_08
*Solid Section, elset=_PickedSet7, orientation=Ori-1, material=MAT_ANISO_08
,
** Section: SEC_ANISO_10
*Solid Section, elset=_PickedSet9, orientation=Ori-1, material=MAT_ANISO_10
,
** Section: SEC_ANISO_05
*Solid Section, elset=_PickedSet5, orientation=Ori-1, material=MAT_ANISO_05
,
** Section: SEC_ANISO_09
*Solid Section, elset=_PickedSet8, orientation=Ori-1, material=MAT_ANISO_09
,
** Section: SEC_ANISO_04
*Solid Section, elset=_PickedSet4, orientation=Ori-1, material=MAT_ANISO_04
,
** Section: SEC_ANISO_07
*Solid Section, elset=_PickedSet6, orientation=Ori-1, material=MAT_ANISO_07
,
*End Part
**  
**
** ASSEMBLY
**
*Assembly, name=Assembly
**  
*Instance, name=BioInst, part=Biofilm
          0.,           0., 20.7283573150635
*End Instance
**  
*Nset, nset=_PickedSet3, internal, instance=BioInst
  289,  290,  291,  292,  293,  294,  295,  296,  585,  586,  587,  588,  589,  590,  591,  592
  881,  882,  883,  884,  885,  886,  887,  888, 1177, 1178, 1179, 1180, 1181, 1182, 1183, 1184
 1473, 1474, 1475, 1476, 1477, 1478, 1479, 1480, 1769, 1770, 1771, 1772, 1773, 1774, 1775, 1776
 2065, 2066, 2067, 2068, 2069, 2070, 2071, 2072, 2361, 2362, 2363, 2364, 2365, 2366, 2367, 2368
 2657, 2658, 2659, 2660, 2661, 2662, 2663, 2664, 2953, 2954, 2955, 2956, 2957, 2958, 2959, 2960
 3249, 3250, 3251, 3252, 3253, 3254, 3255, 3256, 3545, 3546, 3547, 3548, 3549, 3550, 3551, 3552
 3841, 3842, 3843, 3844, 3845, 3846, 3847, 3848, 4137, 4138, 4139, 4140, 4141, 4142, 4143, 4144
 4433, 4434, 4435, 4436, 4437, 4438, 4439, 4440, 4729, 4730, 4731, 4732, 4733, 4734, 4735, 4736
 5025, 5026, 5027, 5028, 5029, 5030, 5031, 5032, 5321, 5322, 5323, 5324, 5325, 5326, 5327, 5328
 5617, 5618, 5619, 5620, 5621, 5622, 5623, 5624, 5913, 5914, 5915, 5916, 5917, 5918, 5919, 5920
 6209, 6210, 6211, 6212, 6213, 6214, 6215, 6216, 6505, 6506, 6507, 6508, 6509, 6510, 6511, 6512
 6801, 6802, 6803, 6804, 6805, 6806, 6807, 6808, 7097, 7098, 7099, 7100, 7101, 7102, 7103, 7104
 7393, 7394, 7395, 7396, 7397, 7398, 7399, 7400, 7689, 7690, 7691, 7692, 7693, 7694, 7695, 7696
 7985, 7986, 7987, 7988, 7989, 7990, 7991, 7992, 8281, 8282, 8283, 8284, 8285, 8286, 8287, 8288
*Elset, elset=_PickedSet3, internal, instance=BioInst
  246,  247,  248,  249,  250,  251,  252,  498,  499,  500,  501,  502,  503,  504,  750,  751
  752,  753,  754,  755,  756, 1002, 1003, 1004, 1005, 1006, 1007, 1008, 1254, 1255, 1256, 1257
 1258, 1259, 1260, 1506, 1507, 1508, 1509, 1510, 1511, 1512, 1758, 1759, 1760, 1761, 1762, 1763
 1764, 2010, 2011, 2012, 2013, 2014, 2015, 2016, 2262, 2263, 2264, 2265, 2266, 2267, 2268, 2514
 2515, 2516, 2517, 2518, 2519, 2520, 2766, 2767, 2768, 2769, 2770, 2771, 2772, 3018, 3019, 3020
 3021, 3022, 3023, 3024, 3270, 3271, 3272, 3273, 3274, 3275, 3276, 3522, 3523, 3524, 3525, 3526
 3527, 3528, 3774, 3775, 3776, 3777, 3778, 3779, 3780, 4026, 4027, 4028, 4029, 4030, 4031, 4032
 4278, 4279, 4280, 4281, 4282, 4283, 4284, 4530, 4531, 4532, 4533, 4534, 4535, 4536, 4782, 4783
 4784, 4785, 4786, 4787, 4788, 5034, 5035, 5036, 5037, 5038, 5039, 5040, 5286, 5287, 5288, 5289
 5290, 5291, 5292, 5538, 5539, 5540, 5541, 5542, 5543, 5544, 5790, 5791, 5792, 5793, 5794, 5795
 5796, 6042, 6043, 6044, 6045, 6046, 6047, 6048, 6294, 6295, 6296, 6297, 6298, 6299, 6300, 6546
 6547, 6548, 6549, 6550, 6551, 6552, 6798, 6799, 6800, 6801, 6802, 6803, 6804
*Elset, elset=__PickedSurf4_S3, internal, instance=BioInst
    1,    2,    3,    4,    5,    6,    7,  253,  254,  255,  256,  257,  258,  259,  505,  506
  507,  508,  509,  510,  511,  757,  758,  759,  760,  761,  762,  763, 1009, 1010, 1011, 1012
 1013, 1014, 1015, 1261, 1262, 1263, 1264, 1265, 1266, 1267, 1513, 1514, 1515, 1516, 1517, 1518
 1519, 1765, 1766, 1767, 1768, 1769, 1770, 1771, 2017, 2018, 2019, 2020, 2021, 2022, 2023, 2269
 2270, 2271, 2272, 2273, 2274, 2275, 2521, 2522, 2523, 2524, 2525, 2526, 2527, 2773, 2774, 2775
 2776, 2777, 2778, 2779, 3025, 3026, 3027, 3028, 3029, 3030, 3031, 3277, 3278, 3279, 3280, 3281
 3282, 3283, 3529, 3530, 3531, 3532, 3533, 3534, 3535, 3781, 3782, 3783, 3784, 3785, 3786, 3787
 4033, 4034, 4035, 4036, 4037, 4038, 4039, 4285, 4286, 4287, 4288, 4289, 4290, 4291, 4537, 4538
 4539, 4540, 4541, 4542, 4543, 4789, 4790, 4791, 4792, 4793, 4794, 4795, 5041, 5042, 5043, 5044
 5045, 5046, 5047, 5293, 5294, 5295, 5296, 5297, 5298, 5299, 5545, 5546, 5547, 5548, 5549, 5550
 5551, 5797, 5798, 5799, 5800, 5801, 5802, 5803, 6049, 6050, 6051, 6052, 6053, 6054, 6055, 6301
 6302, 6303, 6304, 6305, 6306, 6307, 6553, 6554, 6555, 6556, 6557, 6558, 6559
*Surface, type=ELEMENT, name=_PickedSurf4, internal
__PickedSurf4_S3, S3
*End Assembly
** 
** MATERIALS
** 
*Material, name=MAT_ANISO_00
*Elastic, type=ENGINEERING CONSTANTS
 9.66586e+09, 4.83293e+09, 4.83293e+09,         0.3,         0.3,         0.3, 3.71764e+09, 3.71764e+09
 1.85882e+09,
*Material, name=MAT_ANISO_01
*Elastic, type=ENGINEERING CONSTANTS
 9.01552e+09, 4.50776e+09, 4.50776e+09,         0.3,         0.3,         0.3, 3.46751e+09, 3.46751e+09
 1.73375e+09,
*Material, name=MAT_ANISO_02
*Elastic, type=ENGINEERING CONSTANTS
 8.38908e+09, 4.19454e+09, 4.19454e+09,         0.3,         0.3,         0.3, 3.22657e+09, 3.22657e+09
 1.61329e+09,
*Material, name=MAT_ANISO_03
*Elastic, type=ENGINEERING CONSTANTS
 7.78656e+09, 3.89328e+09, 3.89328e+09,         0.3,         0.3,         0.3, 2.99483e+09, 2.99483e+09
 1.49742e+09,
*Material, name=MAT_ANISO_04
*Elastic, type=ENGINEERING CONSTANTS
 7.20795e+09, 3.60398e+09, 3.60398e+09,         0.3,         0.3,         0.3, 2.77229e+09, 2.77229e+09
 1.38614e+09,
*Material, name=MAT_ANISO_05
*Elastic, type=ENGINEERING CONSTANTS
 6.65326e+09, 3.32663e+09, 3.32663e+09,         0.3,         0.3,         0.3, 2.55894e+09, 2.55894e+09
 1.27947e+09,
*Material, name=MAT_ANISO_06
*Elastic, type=ENGINEERING CONSTANTS
 6.12247e+09, 3.06123e+09, 3.06123e+09,         0.3,         0.3,         0.3,  2.3548e+09,  2.3548e+09
  1.1774e+09,
*Material, name=MAT_ANISO_07
*Elastic, type=ENGINEERING CONSTANTS
 5.6156e+09,  2.8078e+09,  2.8078e+09,         0.3,         0.3,         0.3, 2.15984e+09, 2.15984e+09
 1.07992e+09,
*Material, name=MAT_ANISO_08
*Elastic, type=ENGINEERING CONSTANTS
 5.13263e+09, 2.56632e+09, 2.56632e+09,         0.3,         0.3,         0.3, 1.97409e+09, 1.97409e+09
 9.87045e+08,
*Material, name=MAT_ANISO_09
*Elastic, type=ENGINEERING CONSTANTS
 4.67358e+09, 2.33679e+09, 2.33679e+09,         0.3,         0.3,         0.3, 1.79753e+09, 1.79753e+09
 8.98766e+08,
*Material, name=MAT_ANISO_10
*Elastic, type=ENGINEERING CONSTANTS
 4.23844e+09, 2.11922e+09, 2.11922e+09,         0.3,         0.3,         0.3, 1.63017e+09, 1.63017e+09
 8.15085e+08,
*Material, name=MAT_ANISO_11
*Elastic, type=ENGINEERING CONSTANTS
 3.82722e+09, 1.91361e+09, 1.91361e+09,         0.3,         0.3,         0.3, 1.47201e+09, 1.47201e+09
 7.36003e+08,
*Material, name=MAT_ANISO_12
*Elastic, type=ENGINEERING CONSTANTS
 3.4399e+09, 1.71995e+09, 1.71995e+09,         0.3,         0.3,         0.3, 1.32304e+09, 1.32304e+09
 6.61519e+08,
*Material, name=MAT_ANISO_13
*Elastic, type=ENGINEERING CONSTANTS
 3.0765e+09, 1.53825e+09, 1.53825e+09,         0.3,         0.3,         0.3, 1.18327e+09, 1.18327e+09
 5.91634e+08,
*Material, name=MAT_ANISO_14
*Elastic, type=ENGINEERING CONSTANTS
 2.737e+09,  1.3685e+09,  1.3685e+09,         0.3,         0.3,         0.3, 1.05269e+09, 1.05269e+09
 5.26347e+08,
*Material, name=MAT_ANISO_15
*Elastic, type=ENGINEERING CONSTANTS
 2.42142e+09, 1.21071e+09, 1.21071e+09,         0.3,         0.3,         0.3, 9.31316e+08, 9.31316e+08
 4.65658e+08,
*Material, name=MAT_ANISO_16
*Elastic, type=ENGINEERING CONSTANTS
 2.12975e+09, 1.06488e+09, 1.06488e+09,         0.3,         0.3,         0.3, 8.19136e+08, 8.19136e+08
 4.09568e+08,
*Material, name=MAT_ANISO_17
*Elastic, type=ENGINEERING CONSTANTS
 1.862e+09, 9.30998e+08, 9.30998e+08,         0.3,         0.3,         0.3, 7.16153e+08, 7.16153e+08
 3.58076e+08,
*Material, name=MAT_ANISO_18
*Elastic, type=ENGINEERING CONSTANTS
 1.61815e+09, 8.09076e+08, 8.09076e+08,         0.3,         0.3,         0.3, 6.22366e+08, 6.22366e+08
 3.11183e+08,
*Material, name=MAT_ANISO_19
*Elastic, type=ENGINEERING CONSTANTS
 1.39822e+09, 6.99109e+08, 6.99109e+08,         0.3,         0.3,         0.3, 5.37776e+08, 5.37776e+08
 2.68888e+08,
** 
** BOUNDARY CONDITIONS
** 
** Name: FIX_BOT Type: Displacement/Rotation
*Boundary
_PickedSet3, 1, 1
_PickedSet3, 2, 2
_PickedSet3, 3, 3
** ----------------------------------------------------------------
** 
** STEP: LOAD
** 
*Step, name=LOAD, nlgeom=NO
*Static
0.1, 1., 1e-05, 1.
** 
** LOADS
** 
** Name: PRESS   Type: Pressure
*Dsload
_PickedSurf4, P, 1e+06
** 
** OUTPUT REQUESTS
** 
*Restart, write, frequency=0
** 
** FIELD OUTPUT: F-Output-1
** 
*Output, field, variable=PRESELECT
** 
** HISTORY OUTPUT: H-Output-1
** 
*Output, history, variable=PRESELECT
*End Step
