*Heading
 OpenJaw biofilm P1_Tooth_31  geom=crown  beta=0.50
** Job name: oj_t31_b050 Model name: OpenJawBio_T31
** Generated by: Abaqus/CAE 2024
*Preprint, echo=NO, model=NO, history=NO, contact=NO
**
** PARTS
**
*Part, name=Biofilm
*Node
      1,  -38.6360779,   -71.025116,           0.
      2,   -40.825367,  -72.9164276,           0.
      3,  -35.4774704,  -70.4511948,           0.
      4,  -32.4070625,  -70.8940659,           0.
      5,  -30.4889679,  -73.1421738,           0.
      6,  -29.6938114,  -76.1423721,           0.
      7,  -29.1397228,  -79.0185852,           0.
      8,  -30.5619125,  -81.3647308,           0.
      9,  -33.3906937,  -82.1352005,           0.
     10,  -36.0807343,  -81.0618362,           0.
     11,  -38.2513962,  -78.8535156,           0.
     12,  -40.1514854,  -75.9091187,           0.
     13,  -39.0739365,  -71.4033813,           0.
     14,   -39.511795,  -71.7816391,           0.
     15,  -39.9496498,  -72.1599045,           0.
     16,  -40.3875084,  -72.5381622,           0.
     17,  -36.0039062,  -70.5468445,           0.
     18,  -36.5303421,  -70.6425018,           0.
     19,  -37.0567741,  -70.7381592,           0.
     20,    -37.58321,  -70.8338089,           0.
** ... 19849 like lines cut
*Element, type=C3D8R
    1,   205,   161,   120,   138,   742,   698,   657,   675
    2,   120,   121,   145,   138,   657,   658,   682,   675
    3,   117,   116,    61,    62,   654,   653,   598,   599
    4,    87,    88,   137,   136,   624,   625,   674,   673
    5,    96,    41,     6,    90,   633,   578,   543,   627
    6,   112,   113,   148,   147,   649,   650,   685,   684
    7,    95,    74,   129,   459,   632,   611,   666,   996
    8,   104,   105,   168,   133,   641,   642,   705,   670
    9,    92,    34,    35,    72,   629,   571,   572,   609
   10,    75,    78,     3,    17,   612,   615,   540,   554
   11,    20,    21,   157,    81,   557,   558,   694,   618
   12,   146,   187,   188,   144,   683,   724,   725,   681
   13,    21,     1,   206,   157,   558,   538,   743,   694
   14,    13,    14,    77,    76,   550,   551,   614,   613
   15,    84,    26,     3,    78,   621,   563,   540,   615
   16,    79,    75,    17,    18,   616,   612,   554,   555
   17,    80,    79,    18,    19,   617,   616,   555,   556
   18,    19,    20,    81,    80,   556,   557,   618,   617
   19,    22,   134,   451,     4,   559,   671,   988,   541
   20,   134,    22,    23,    82,   671,   559,   560,   619
** ... 18016 like lines cut
*Elset, elset=_PickedSet4, internal, generate
    92,  17627,    501
*Elset, elset=_PickedSet5, internal
    44,    87,   479,   545,   588,   980,  1046,  1089,  1481,  1547,  1590,  1982,  2048,  2091,  2483,  2549
  2592,  2984,  3050,  3093,  3485,  3551,  3594,  3986,  4052,  4095,  4487,  4553,  4596,  4988,  5054,  5097
  5489,  5555,  5598,  5990,  6056,  6099,  6491,  6557,  6600,  6992,  7058,  7101,  7493,  7559,  7602,  7994
  8060,  8103,  8495,  8561,  8604,  8996,  9062,  9105,  9497,  9563,  9606,  9998, 10064, 10107, 10499, 10565
 10608, 11000, 11066, 11109, 11501, 11567, 11610, 12002, 12068, 12111, 12503, 12569, 12612, 13004, 13070, 13113
 13505, 13571, 13614, 14006, 14072, 14115, 14507, 14573, 14616, 15008, 15074, 15117, 15509, 15575, 15618, 16010
 16076, 16119, 16511, 16577, 16620, 17012, 17078, 17121, 17513, 17579, 17622, 18014
*Elset, elset=_PickedSet6, internal
    33,    37,    38,   100,   534,   538,   539,   601,  1035,  1039,  1040,  1102,  1536,  1540,  1541,  1603
  2037,  2041,  2042,  2104,  2538,  2542,  2543,  2605,  3039,  3043,  3044,  3106,  3540,  3544,  3545,  3607
  4041,  4045,  4046,  4108,  4542,  4546,  4547,  4609,  5043,  5047,  5048,  5110,  5544,  5548,  5549,  5611
  6045,  6049,  6050,  6112,  6546,  6550,  6551,  6613,  7047,  7051,  7052,  7114,  7548,  7552,  7553,  7615
  8049,  8053,  8054,  8116,  8550,  8554,  8555,  8617,  9051,  9055,  9056,  9118,  9552,  9556,  9557,  9619
 10053, 10057, 10058, 10120, 10554, 10558, 10559, 10621, 11055, 11059, 11060, 11122, 11556, 11560, 11561, 11623
 12057, 12061, 12062, 12124, 12558, 12562, 12563, 12625, 13059, 13063, 13064, 13126, 13560, 13564, 13565, 13627
 14061, 14065, 14066, 14128, 14562, 14566, 14567, 14629, 15063, 15067, 15068, 15130, 15564, 15568, 15569, 15631
 16065, 16069, 16070, 16132, 16566, 16570, 16571, 16633, 17067, 17071, 17072, 17134, 17568, 17572, 17573, 17635
*Elset, elset=_PickedSet7, internal
     1,     2,     3,     4,     5,     6,     7,     8,     9,    10,    11,    12,    13,    14,    15,    16
    17,    18,    19,    20,    21,    22,    23,    24,    25,    26,    27,    28,    29,    30,    31,    32
    34,    35,    36,    39,    40,    41,    42,    43,    45,    46,    47,    48,    49,    50,    51,    52
    53,    54,    55,    56,    57,    58,    59,    60,    61,    62,    63,    64,    65,    66,    67,    68
    69,    70,    71,    72,    73,    74,    75,    76,    77,    78,    79,    80,    81,    82,    83,    84
    85,    86,    88,    89,    91,    93,    94,    95,    96,    97,    98,    99,   101,   102,   103,   104
   105,   106,   107,   108,   109,   110,   111,   112,   113,   114,   115,   116,   117,   118,   119,   120
   121,   122,   123,   124,   125,   126,   127,   128,   129,   130,   131,   132,   133,   134,   135,   136
   137,   138,   139,   140,   141,   142,   143,   144,   145,   146,   147,   148,   149,   150,   151,   152
   153,   154,   155,   156,   157,   158,   159,   160,   161,   162,   163,   164,   165,   166,   167,   168
   169,   170,   171,   172,   173,   174,   175,   176,   177,   178,   179,   180,   181,   182,   183,   184
   185,   186,   187,   188,   189,   190,   191,   192,   193,   194,   195,   196,   197,   198,   199,   200
   201,   202,   203,   204,   205,   206,   207,   208,   209,   210,   211,   212,   213,   214,   215,   216
   217,   218,   219,   220,   221,   222,   223,   224,   225,   226,   227,   228,   229,   230,   231,   232
   233,   234,   235,   236,   237,   238,   239,   240,   241,   242,   243,   244,   245,   246,   247,   248
   249,   250,   251,   252,   253,   254,   255,   256,   257,   258,   259,   260,   261,   262,   263,   264
   265,   266,   267,   268,   269,   270,   271,   272,   273,   274,   275,   276,   277,   278,   279,   280
   281,   282,   283,   284,   285,   286,   287,   288,   289,   290,   291,   292,   293,   294,   295,   296
   297,   298,   299,   300,   301,   302,   303,   304,   305,   306,   307,   308,   309,   310,   311,   312
   313,   314,   315,   316,   317,   318,   319,   320,   321,   322,   323,   324,   325,   326,   327,   328
** ... 1087 like lines cut
*Elset, elset=_PickedSet8, internal, generate
    90,  17625,    501
*Orientation, name=Ori-1
          1.,           0.,           0.,           0.,           0.,           1.
1, 0.
** Section: SEC_ANISO_09
*Solid Section, elset=_PickedSet7, orientation=Ori-1, material=MAT_ANISO_09
,
** Section: SEC_ANISO_08
*Solid Section, elset=_PickedSet6, orientation=Ori-1, material=MAT_ANISO_08
,
** Section: SEC_ANISO_07
*Solid Section, elset=_PickedSet5, orientation=Ori-1, material=MAT_ANISO_07
,
** Section: SEC_ANISO_11
*Solid Section, elset=_PickedSet8, orientation=Ori-1, material=MAT_ANISO_11
,
** Section: SEC_ANISO_05
*Solid Section, elset=_PickedSet4, orientation=Ori-1, material=MAT_ANISO_05
,
*End Part
**  
**
** ASSEMBLY
**
*Assembly, name=Assembly
**  
*Instance, name=BioInst, part=Biofilm
          0.,           0., 20.7283573150635
*End Instance
**  
*Nset, nset=_PickedSet3, internal, instance=BioInst, generate
   1,  537,    1
*Elset, elset=_PickedSet3, internal, instance=BioInst, generate
   1,  501,    1
*Elset, elset=__PickedSurf4_S2, internal, instance=BioInst, generate
 17536,  18036,      1
*Surface, type=ELEMENT, name=_PickedSurf4, internal
__PickedSurf4_S2, S2
*End Assembly
** 
** MATERIALS
** 
*Material, name=MAT_ANISO_00
*Elastic, type=ENGINEERING CONSTANTS
 9.60162e+09, 4.80081e+09, 4.80081e+09,         0.3,         0.3,         0.3, 3.69293e+09, 3.69293e+09
 1.84647e+09,
*Material, name=MAT_ANISO_01
*Elastic, type=ENGINEERING CONSTANTS
 8.83045e+09, 4.41523e+09, 4.41523e+09,         0.3,         0.3,         0.3, 3.39633e+09, 3.39633e+09
 1.69816e+09,
*Material, name=MAT_ANISO_02
*Elastic, type=ENGINEERING CONSTANTS
 8.09339e+09, 4.04669e+09, 4.04669e+09,         0.3,         0.3,         0.3, 3.11284e+09, 3.11284e+09
 1.55642e+09,
*Material, name=MAT_ANISO_03
*Elastic, type=ENGINEERING CONSTANTS
 7.39043e+09, 3.69521e+09, 3.69521e+09,         0.3,         0.3,         0.3, 2.84247e+09, 2.84247e+09
 1.42124e+09,
*Material, name=MAT_ANISO_04
*Elastic, type=ENGINEERING CONSTANTS
 6.72158e+09, 3.36079e+09, 3.36079e+09,         0.3,         0.3,         0.3, 2.58522e+09, 2.58522e+09
 1.29261e+09,
*Material, name=MAT_ANISO_05
*Elastic, type=ENGINEERING CONSTANTS
 6.08684e+09, 3.04342e+09, 3.04342e+09,         0.3,         0.3,         0.3, 2.34109e+09, 2.34109e+09
 1.17055e+09,
*Material, name=MAT_ANISO_06
*Elastic, type=ENGINEERING CONSTANTS
 5.48621e+09,  2.7431e+09,  2.7431e+09,         0.3,         0.3,         0.3, 2.11008e+09, 2.11008e+09
 1.05504e+09,
*Material, name=MAT_ANISO_07
*Elastic, type=ENGINEERING CONSTANTS
 4.91968e+09, 2.45984e+09, 2.45984e+09,         0.3,         0.3,         0.3, 1.89218e+09, 1.89218e+09
 9.46092e+08,
*Material, name=MAT_ANISO_08
*Elastic, type=ENGINEERING CONSTANTS
 4.38726e+09, 2.19363e+09, 2.19363e+09,         0.3,         0.3,         0.3, 1.68741e+09, 1.68741e+09
 8.43704e+08,
*Material, name=MAT_ANISO_09
*Elastic, type=ENGINEERING CONSTANTS
 3.88895e+09, 1.94448e+09, 1.94448e+09,         0.3,         0.3,         0.3, 1.49575e+09, 1.49575e+09
 7.47876e+08,
*Material, name=MAT_ANISO_10
*Elastic, type=ENGINEERING CONSTANTS
 3.42475e+09, 1.71238e+09, 1.71238e+09,         0.3,         0.3,         0.3, 1.31721e+09, 1.31721e+09
 6.58606e+08,
*Material, name=MAT_ANISO_11
*Elastic, type=ENGINEERING CONSTANTS
 2.99466e+09, 1.49733e+09, 1.49733e+09,         0.3,         0.3,         0.3, 1.15179e+09, 1.15179e+09
 5.75896e+08,
*Material, name=MAT_ANISO_12
*Elastic, type=ENGINEERING CONSTANTS
 2.59867e+09, 1.29934e+09, 1.29934e+09,         0.3,         0.3,         0.3,  9.9949e+08,  9.9949e+08
 4.99745e+08,
*Material, name=MAT_ANISO_13
*Elastic, type=ENGINEERING CONSTANTS
 2.2368e+09,  1.1184e+09,  1.1184e+09,         0.3,         0.3,         0.3, 8.60306e+08, 8.60306e+08
 4.30153e+08,
*Material, name=MAT_ANISO_14
*Elastic, type=ENGINEERING CONSTANTS
 1.90903e+09, 9.54513e+08, 9.54513e+08,         0.3,         0.3,         0.3, 7.34241e+08, 7.34241e+08
  3.6712e+08,
*Material, name=MAT_ANISO_15
*Elastic, type=ENGINEERING CONSTANTS
 1.61536e+09, 8.07682e+08, 8.07682e+08,         0.3,         0.3,         0.3, 6.21294e+08, 6.21294e+08
 3.10647e+08,
*Material, name=MAT_ANISO_16
*Elastic, type=ENGINEERING CONSTANTS
 1.35581e+09, 6.77905e+08, 6.77905e+08,         0.3,         0.3,         0.3, 5.21466e+08, 5.21466e+08
 2.60733e+08,
*Material, name=MAT_ANISO_17
*Elastic, type=ENGINEERING CONSTANTS
 1.13036e+09, 5.65182e+08, 5.65182e+08,         0.3,         0.3,         0.3, 4.34756e+08, 4.34756e+08
 2.17378e+08,
*Material, name=MAT_ANISO_18
*Elastic, type=ENGINEERING CONSTANTS
 9.39027e+08, 4.69513e+08, 4.69513e+08,         0.3,         0.3,         0.3, 3.61164e+08, 3.61164e+08
 1.80582e+08,
*Material, name=MAT_ANISO_19
*Elastic, type=ENGINEERING CONSTANTS
 7.81797e+08, 3.90898e+08, 3.90898e+08,         0.3,         0.3,         0.3, 3.00691e+08, 3.00691e+08
 1.50345e+08,
** 
** BOUNDARY CONDITIONS
** 
** Name: FIX_BOT Type: Displacement/Rotation
*Boundary
_PickedSet3, 1, 1
_PickedSet3, 2, 2
_PickedSet3, 3, 3
** ----------------------------------------------------------------
** 
** STEP: LOAD
** 
*Step, name=LOAD, nlgeom=NO
*Static
0.1, 1., 1e-05, 1.
** 
** LOADS
** 
** Name: PRESS   Type: Pressure
*Dsload
_PickedSurf4, P, 1e+06
** 
** OUTPUT REQUESTS
** 
*Restart, write, frequency=0
** 
** FIELD OUTPUT: F-Output-1
** 
*Output, field, variable=PRESELECT
** 
** HISTORY OUTPUT: H-Output-1
** 
*Output, history, variable=PRESELECT
*End Step
